CHEMBL122264
     RDKit          2D

 24 27  0  0  0  0  0  0  0  0999 V2000
    2.5645    2.4750    0.0000 C   0  0  0  0  0  0  0  0  0  0  0  0
    3.2789    2.0625    0.0000 O   0  0  0  0  0  0  0  0  0  0  0  0
    3.2789    1.2375    0.0000 C   0  0  0  0  0  0  0  0  0  0  0  0
    3.9934    0.8250    0.0000 N   0  0  0  0  0  0  0  0  0  0  0  0
    3.9934    0.0000    0.0000 C   0  0  0  0  0  0  0  0  0  0  0  0
    4.7079   -0.4125    0.0000 N   0  0  0  0  0  0  0  0  0  0  0  0
    4.7079   -1.2375    0.0000 C   0  0  0  0  0  0  0  0  0  0  0  0
    5.4223   -1.6500    0.0000 C   0  0  0  0  0  0  0  0  0  0  0  0
    5.4223   -2.4750    0.0000 C   0  0  0  0  0  0  0  0  0  0  0  0
    4.7079   -2.8875    0.0000 C   0  0  0  0  0  0  0  0  0  0  0  0
    3.9934   -2.4750    0.0000 C   0  0  0  0  0  0  0  0  0  0  0  0
    3.9934   -1.6500    0.0000 C   0  0  0  0  0  0  0  0  0  0  0  0
    3.2789   -0.4125    0.0000 N   0  0  0  0  0  0  0  0  0  0  0  0
    2.5645    0.0000    0.0000 C   0  0  0  0  0  0  0  0  0  0  0  0
    1.7798   -0.2549    0.0000 N   0  0  0  0  0  0  0  0  0  0  0  0
    1.2949    0.4125    0.0000 C   0  0  0  0  0  0  0  0  0  0  0  0
    1.7798    1.0799    0.0000 N   0  0  0  0  0  0  0  0  0  0  0  0
    2.5645    0.8250    0.0000 C   0  0  0  0  0  0  0  0  0  0  0  0
    2.5645    3.3000    0.0000 C   0  0  0  0  0  0  0  0  0  0  0  0
    1.8500    3.7125    0.0000 C   0  0  0  0  0  0  0  0  0  0  0  0
    1.8500    4.5375    0.0000 C   0  0  0  0  0  0  0  0  0  0  0  0
    2.5645    4.9500    0.0000 C   0  0  0  0  0  0  0  0  0  0  0  0
    3.2789    4.5375    0.0000 C   0  0  0  0  0  0  0  0  0  0  0  0
    3.2789    3.7125    0.0000 C   0  0  0  0  0  0  0  0  0  0  0  0
  1  2  1  0
  2  3  1  0
  3  4  2  0
  4  5  1  0
  5  6  1  0
  6  7  1  0
  7  8  2  0
  8  9  1  0
  9 10  2  0
 10 11  1  0
 11 12  2  0
  7 12  1  0
  5 13  2  0
 13 14  1  0
 14 15  1  0
 15 16  2  0
 16 17  1  0
 17 18  1  0
  3 18  1  0
 14 18  2  0
  1 19  1  0
 19 20  1  0
 20 21  1  0
 21 22  1  0
 22 23  1  0
 23 24  1  0
 19 24  1  0
M  END
>  <pIC50>  (1) 
5.64

>  <chembl_id>  (1) 
CHEMBL122264

>  <canonical_smiles>  (1) 
C(Oc1nc(Nc2ccccc2)nc3nc[nH]c13)C4CCCCC4

$$$$
CHEMBL141247
     RDKit          2D

 23 26  0  0  1  0  0  0  0  0999 V2000
   -0.1741   -1.5812    0.0000 O   0  0  0  0  0  0  0  0  0  0  0  0
    0.6293   -1.7686    0.0000 C   0  0  0  0  0  0  0  0  0  0  0  0
    0.8687   -2.5581    0.0000 N   0  0  0  0  0  0  0  0  0  0  0  0
    0.3047   -3.1602    0.0000 C   0  0  0  0  0  0  0  0  0  0  0  0
    0.5441   -3.9497    0.0000 C   0  0  0  0  0  0  0  0  0  0  0  0
   -0.0199   -4.5518    0.0000 C   0  0  0  0  0  0  0  0  0  0  0  0
   -0.8233   -4.3644    0.0000 C   0  0  0  0  0  0  0  0  0  0  0  0
   -1.0627   -3.5749    0.0000 C   0  0  0  0  0  0  0  0  0  0  0  0
   -0.4987   -2.9728    0.0000 N   0  0  0  0  0  0  0  0  0  0  0  0
    1.1933   -1.1665    0.0000 N   0  0  0  0  0  0  0  0  0  0  0  0
    0.9539   -0.3770    0.0000 C   0  0  0  0  0  0  0  0  0  0  0  0
    0.1505   -0.1896    0.0000 C   0  0  0  0  0  0  0  0  0  0  0  0
   -0.0890    0.5999    0.0000 C   0  0  0  0  0  0  0  0  0  0  0  0
    0.4750    1.2020    0.0000 C   0  0  0  0  0  0  0  0  0  0  0  0
    1.2785    1.0146    0.0000 C   0  0  0  0  0  0  0  0  0  0  0  0
    1.9554    1.4863    0.0000 C   0  0  0  0  0  0  0  0  0  0  0  0
    1.9716    2.3111    0.0000 O   0  0  0  0  0  0  0  0  0  0  0  0
    2.6131    0.9883    0.0000 N   0  0  0  0  0  0  0  0  0  0  0  0
    3.4379    0.9720    0.0000 C   0  0  0  0  0  0  0  0  0  0  0  0
    3.6774    0.1825    0.0000 C   0  0  0  0  0  0  0  0  0  0  0  0
    3.0005   -0.2892    0.0000 C   0  0  0  0  0  0  0  0  0  0  0  0
    2.3427    0.2088    0.0000 C   0  0  0  0  0  0  0  0  0  0  0  0
    1.5179    0.2251    0.0000 C   0  0  0  0  0  0  0  0  0  0  0  0
  1  2  2  0
  2  3  1  0
  3  4  1  0
  4  5  2  0
  5  6  1  0
  6  7  2  0
  7  8  1  0
  8  9  2  0
  4  9  1  0
  2 10  1  0
 10 11  1  0
 11 12  2  0
 12 13  1  0
 13 14  2  0
 14 15  1  0
 15 16  1  0
 16 17  2  0
 16 18  1  0
 18 19  1  0
 19 20  1  0
 20 21  1  0
 22 21  1  6
 22 18  1  0
 22 23  1  0
 11 23  1  0
 15 23  2  0
M  END
>  <pIC50>  (2) 
7.10

>  <chembl_id>  (2) 
CHEMBL141247

>  <canonical_smiles>  (2) 
O=C(Nc1ccccn1)Nc2cccc3C(=O)N4CCC[C@@H]4c23

$$$$
CHEMBL178179
     RDKit          2D

 35 39  0  0  0  0  0  0  0  0999 V2000
   -1.0079    3.7125    0.0000 C   0  0  0  0  0  0  0  0  0  0  0  0
   -0.2934    4.1250    0.0000 N   0  0  0  0  0  0  0  0  0  0  0  0
   -0.2934    4.9500    0.0000 C   0  0  0  0  0  0  0  0  0  0  0  0
    0.4210    3.7125    0.0000 S   0  0  0  0  0  0  0  0  0  0  0  0
    0.0085    2.9980    0.0000 O   0  0  0  0  0  0  0  0  0  0  0  0
    0.8335    4.4270    0.0000 O   0  0  0  0  0  0  0  0  0  0  0  0
    1.1355    3.3000    0.0000 C   0  0  0  0  0  0  0  0  0  0  0  0
    1.8500    3.7125    0.0000 C   0  0  0  0  0  0  0  0  0  0  0  0
    2.5645    3.3000    0.0000 C   0  0  0  0  0  0  0  0  0  0  0  0
    2.5645    2.4750    0.0000 C   0  0  0  0  0  0  0  0  0  0  0  0
    3.2789    2.0625    0.0000 N   0  0  0  0  0  0  0  0  0  0  0  0
    3.2789    1.2375    0.0000 C   0  0  0  0  0  0  0  0  0  0  0  0
    3.9934    0.8250    0.0000 C   0  0  0  0  0  0  0  0  0  0  0  0
    3.9934    0.0000    0.0000 C   0  0  0  0  0  0  0  0  0  0  0  0
    4.7079   -0.4125    0.0000 N   0  0  0  0  0  0  0  0  0  0  0  0
    4.7079   -1.2375    0.0000 C   0  0  0  0  0  0  0  0  0  0  0  0
    5.4223   -1.6500    0.0000 C   0  0  0  0  0  0  0  0  0  0  0  0
    5.4223   -2.4750    0.0000 C   0  0  0  0  0  0  0  0  0  0  0  0
    4.7079   -2.8875    0.0000 C   0  0  0  0  0  0  0  0  0  0  0  0
    4.7079   -3.7125    0.0000 N   0  0  0  0  0  0  0  0  0  0  0  0
    3.9934   -2.4750    0.0000 C   0  0  0  0  0  0  0  0  0  0  0  0
    3.9934   -1.6500    0.0000 C   0  0  0  0  0  0  0  0  0  0  0  0
    3.2789   -0.4125    0.0000 N   0  0  0  0  0  0  0  0  0  0  0  0
    2.5645    0.0000    0.0000 C   0  0  0  0  0  0  0  0  0  0  0  0
    1.7798   -0.2549    0.0000 C   0  0  0  0  0  0  0  0  0  0  0  0
    1.2949    0.4125    0.0000 C   0  0  0  0  0  0  0  0  0  0  0  0
    1.7798    1.0799    0.0000 N   0  0  0  0  0  0  0  0  0  0  0  0
    2.5645    0.8250    0.0000 N   0  0  0  0  0  0  0  0  0  0  0  0
    1.5249   -1.0396    0.0000 C   0  0  0  0  0  0  0  0  0  0  0  0
    2.0098   -1.7070    0.0000 C   0  0  0  0  0  0  0  0  0  0  0  0
    1.5249   -2.3744    0.0000 C   0  0  0  0  0  0  0  0  0  0  0  0
    0.7403   -2.1195    0.0000 C   0  0  0  0  0  0  0  0  0  0  0  0
    0.7403   -1.2945    0.0000 C   0  0  0  0  0  0  0  0  0  0  0  0
    1.8500    2.0625    0.0000 C   0  0  0  0  0  0  0  0  0  0  0  0
    1.1355    2.4750    0.0000 C   0  0  0  0  0  0  0  0  0  0  0  0
  1  2  1  0
  2  3  1  0
  2  4  1  0
  4  5  2  0
  4  6  2  0
  4  7  1  0
  7  8  2  0
  8  9  1  0
  9 10  2  0
 10 11  1  0
 11 12  1  0
 12 13  2  0
 13 14  1  0
 14 15  1  0
 16 15  1  6
 16 17  1  0
 17 18  1  0
 19 18  1  0
 19 20  1  1
 19 21  1  0
 21 22  1  0
 16 22  1  0
 14 23  2  0
 23 24  1  0
 24 25  2  0
 25 26  1  0
 26 27  2  0
 27 28  1  0
 12 28  1  0
 24 28  1  0
 25 29  1  0
 29 30  1  0
 30 31  1  0
 31 32  1  0
 32 33  1  0
 29 33  1  0
 10 34  1  0
 34 35  2  0
  7 35  1  0
M  END
>  <pIC50>  (3) 
8.40

>  <chembl_id>  (3) 
CHEMBL178179

>  <canonical_smiles>  (3) 
CN(C)S(=O)(=O)c1ccc(Nc2cc(N[C@@H]3CC[C@@H](N)CC3)nc4c(cnn24)C5CCCC5)cc1

$$$$
CHEMBL178268
     RDKit          2D

 28 30  0  0  0  0  0  0  0  0999 V2000
    4.7812    4.4104    0.0000 C   0  0  0  0  0  0  0  0  0  0  0  0
    4.7812    3.5854    0.0000 C   0  0  0  0  0  0  0  0  0  0  0  0
    5.4957    3.1729    0.0000 C   0  0  0  0  0  0  0  0  0  0  0  0
    4.0668    3.1729    0.0000 C   0  0  0  0  0  0  0  0  0  0  0  0
    4.0668    2.3479    0.0000 O   0  0  0  0  0  0  0  0  0  0  0  0
    3.3523    1.9354    0.0000 C   0  0  0  0  0  0  0  0  0  0  0  0
    3.3523    1.1104    0.0000 C   0  0  0  0  0  0  0  0  0  0  0  0
    2.6378    0.6979    0.0000 C   0  0  0  0  0  0  0  0  0  0  0  0
    2.6378   -0.1271    0.0000 N   0  0  0  0  0  0  0  0  0  0  0  0
    1.9233   -0.5396    0.0000 C   0  0  0  0  0  0  0  0  0  0  0  0
    1.9233   -1.3646    0.0000 C   0  0  0  0  0  0  0  0  0  0  0  0
    1.2089   -1.7771    0.0000 C   0  0  0  0  0  0  0  0  0  0  0  0
    0.4944   -1.3646    0.0000 C   0  0  0  0  0  0  0  0  0  0  0  0
    0.4944   -0.5396    0.0000 C   0  0  0  0  0  0  0  0  0  0  0  0
    1.2089   -0.1271    0.0000 C   0  0  0  0  0  0  0  0  0  0  0  0
   -0.2201   -1.7771    0.0000 S   0  0  0  0  0  0  0  0  0  0  0  0
   -0.9345   -2.1896    0.0000 O   0  0  0  0  0  0  0  0  0  0  0  0
   -0.6326   -1.0626    0.0000 O   0  0  0  0  0  0  0  0  0  0  0  0
    0.1924   -2.4915    0.0000 C   0  0  0  0  0  0  0  0  0  0  0  0
    1.9233    1.1104    0.0000 N   0  0  0  0  0  0  0  0  0  0  0  0
    1.1387    0.8555    0.0000 N   0  0  0  0  0  0  0  0  0  0  0  0
    0.6538    1.5229    0.0000 C   0  0  0  0  0  0  0  0  0  0  0  0
    1.1387    2.1904    0.0000 C   0  0  0  0  0  0  0  0  0  0  0  0
    0.8838    2.9750    0.0000 C   0  0  0  0  0  0  0  0  0  0  0  0
    1.4358    3.5881    0.0000 C   0  0  0  0  0  0  0  0  0  0  0  0
    0.0768    3.1465    0.0000 C   0  0  0  0  0  0  0  0  0  0  0  0
    1.9233    1.9354    0.0000 C   0  0  0  0  0  0  0  0  0  0  0  0
    2.6378    2.3479    0.0000 N   0  0  0  0  0  0  0  0  0  0  0  0
  1  2  1  0
  2  3  1  0
  2  4  1  0
  4  5  1  0
  5  6  1  0
  6  7  1  0
  7  8  2  0
  8  9  1  0
  9 10  1  0
 10 11  2  0
 11 12  1  0
 12 13  2  0
 13 14  1  0
 14 15  2  0
 10 15  1  0
 13 16  1  0
 16 17  2  0
 16 18  2  0
 16 19  1  0
  8 20  1  0
 20 21  1  0
 21 22  2  0
 22 23  1  0
 23 24  1  0
 24 25  1  0
 24 26  1  0
 23 27  2  0
 20 27  1  0
 27 28  1  0
  6 28  2  0
M  END
>  <pIC50>  (4) 
5.92

>  <chembl_id>  (4) 
CHEMBL178268

>  <canonical_smiles>  (4) 
CC(C)COc1cc(Nc2ccc(cc2)S(=O)(=O)C)n3ncc(C(C)C)c3n1

$$$$
CHEMBL178737
     RDKit          2D

 37 43  0  0  0  0  0  0  0  0999 V2000
    5.1492    2.3705    0.0000 O   0  0  0  0  0  0  0  0  0  0  0  0
    4.3371    2.5156    0.0000 C   0  0  0  0  0  0  0  0  0  0  0  0
    4.0567    3.2915    0.0000 N   0  0  0  0  0  0  0  0  0  0  0  0
    3.2445    3.4366    0.0000 C   0  0  0  0  0  0  0  0  0  0  0  0
    2.9642    4.2125    0.0000 C   0  0  0  0  0  0  0  0  0  0  0  0
    3.4959    4.8433    0.0000 O   0  0  0  0  0  0  0  0  0  0  0  0
    4.3081    4.6982    0.0000 C   0  0  0  0  0  0  0  0  0  0  0  0
    4.5884    3.9223    0.0000 C   0  0  0  0  0  0  0  0  0  0  0  0
    3.8053    1.8848    0.0000 N   0  0  0  0  0  0  0  0  0  0  0  0
    4.1429    1.1321    0.0000 C   0  0  0  0  0  0  0  0  0  0  0  0
    3.7648    0.3988    0.0000 C   0  0  0  0  0  0  0  0  0  0  0  0
    2.9558    0.2372    0.0000 N   0  0  0  0  0  0  0  0  0  0  0  0
    2.6450   -0.5270    0.0000 C   0  0  0  0  0  0  0  0  0  0  0  0
    1.8221   -0.4676    0.0000 C   0  0  0  0  0  0  0  0  0  0  0  0
    1.2904   -1.0983    0.0000 C   0  0  0  0  0  0  0  0  0  0  0  0
    1.4881   -1.8993    0.0000 C   0  0  0  0  0  0  0  0  0  0  0  0
    0.7875   -2.3348    0.0000 C   0  0  0  0  0  0  0  0  0  0  0  0
    0.7280   -3.1577    0.0000 O   0  0  0  0  0  0  0  0  0  0  0  0
    0.1567   -1.8031    0.0000 N   0  0  0  0  0  0  0  0  0  0  0  0
    0.4675   -1.0389    0.0000 C   0  0  0  0  0  0  0  0  0  0  0  0
    0.0319   -0.3382    0.0000 O   0  0  0  0  0  0  0  0  0  0  0  0
    2.2523   -2.2101    0.0000 C   0  0  0  0  0  0  0  0  0  0  0  0
    2.9530   -1.7745    0.0000 C   0  0  0  0  0  0  0  0  0  0  0  0
    3.5837   -2.3063    0.0000 N   0  0  0  0  0  0  0  0  0  0  0  0
    3.2729   -3.0705    0.0000 C   0  0  0  0  0  0  0  0  0  0  0  0
    3.6328   -3.8128    0.0000 C   0  0  0  0  0  0  0  0  0  0  0  0
    3.1699   -4.4957    0.0000 C   0  0  0  0  0  0  0  0  0  0  0  0
    2.3471   -4.4363    0.0000 C   0  0  0  0  0  0  0  0  0  0  0  0
    1.9871   -3.6939    0.0000 C   0  0  0  0  0  0  0  0  0  0  0  0
    2.4500   -3.0110    0.0000 N   0  0  0  0  0  0  0  0  0  0  0  0
    1.6244    0.3334    0.0000 C   0  0  0  0  0  0  0  0  0  0  0  0
    0.8968    0.7224    0.0000 C   0  0  0  0  0  0  0  0  0  0  0  0
    0.8700    1.5469    0.0000 C   0  0  0  0  0  0  0  0  0  0  0  0
    1.5706    1.9825    0.0000 C   0  0  0  0  0  0  0  0  0  0  0  0
    2.3475    1.5936    0.0000 C   0  0  0  0  0  0  0  0  0  0  0  0
    3.0063    2.0903    0.0000 C   0  0  0  0  0  0  0  0  0  0  0  0
    2.3250    0.7690    0.0000 C   0  0  0  0  0  0  0  0  0  0  0  0
  1  2  2  0
  2  3  1  0
  3  4  1  0
  4  5  1  0
  5  6  1  0
  6  7  1  0
  7  8  1  0
  3  8  1  0
  2  9  1  0
  9 10  1  0
 10 11  1  0
 11 12  1  0
 12 13  1  0
 13 14  2  0
 14 15  1  0
 15 16  2  0
 16 17  1  0
 17 18  2  0
 17 19  1  0
 19 20  1  0
 15 20  1  0
 20 21  2  0
 16 22  1  0
 22 23  2  0
 23 24  1  0
 24 25  2  0
 25 26  1  0
 26 27  2  0
 27 28  1  0
 28 29  2  0
 29 30  1  0
 22 30  1  0
 25 30  1  0
 14 31  1  0
 31 32  1  0
 32 33  2  0
 33 34  1  0
 34 35  2  0
 35 36  1  0
  9 36  1  0
 35 37  1  0
 12 37  1  0
 31 37  2  0
M  END
>  <pIC50>  (5) 
5.28

>  <chembl_id>  (5) 
CHEMBL178737

>  <canonical_smiles>  (5) 
O=C(N1CCOCC1)N2CCn3cc(C4=C(C(=O)NC4=O)c5cnc6ccccn56)c7cccc(C2)c37

$$$$
CHEMBL178769
     RDKit          2D

 32 35  0  0  0  0  0  0  0  0999 V2000
   -1.0079    3.7125    0.0000 C   0  0  0  0  0  0  0  0  0  0  0  0
   -0.2934    4.1250    0.0000 N   0  0  0  0  0  0  0  0  0  0  0  0
   -0.2934    4.9500    0.0000 C   0  0  0  0  0  0  0  0  0  0  0  0
    0.4210    3.7125    0.0000 S   0  0  0  0  0  0  0  0  0  0  0  0
    0.0085    2.9980    0.0000 O   0  0  0  0  0  0  0  0  0  0  0  0
    0.8335    4.4270    0.0000 O   0  0  0  0  0  0  0  0  0  0  0  0
    1.1355    3.3000    0.0000 C   0  0  0  0  0  0  0  0  0  0  0  0
    1.8500    3.7125    0.0000 C   0  0  0  0  0  0  0  0  0  0  0  0
    2.5645    3.3000    0.0000 C   0  0  0  0  0  0  0  0  0  0  0  0
    2.5645    2.4750    0.0000 C   0  0  0  0  0  0  0  0  0  0  0  0
    3.2789    2.0625    0.0000 N   0  0  0  0  0  0  0  0  0  0  0  0
    3.2789    1.2375    0.0000 C   0  0  0  0  0  0  0  0  0  0  0  0
    3.9934    0.8250    0.0000 C   0  0  0  0  0  0  0  0  0  0  0  0
    3.9934    0.0000    0.0000 C   0  0  0  0  0  0  0  0  0  0  0  0
    4.7079   -0.4125    0.0000 N   0  0  0  0  0  0  0  0  0  0  0  0
    4.7079   -1.2375    0.0000 C   0  0  0  0  0  0  0  0  0  0  0  0
    5.4223   -1.6500    0.0000 C   0  0  0  0  0  0  0  0  0  0  0  0
    5.4223   -2.4750    0.0000 C   0  0  0  0  0  0  0  0  0  0  0  0
    4.7079   -2.8875    0.0000 C   0  0  0  0  0  0  0  0  0  0  0  0
    4.7079   -3.7125    0.0000 N   0  0  0  0  0  0  0  0  0  0  0  0
    3.9934   -2.4750    0.0000 C   0  0  0  0  0  0  0  0  0  0  0  0
    3.9934   -1.6500    0.0000 C   0  0  0  0  0  0  0  0  0  0  0  0
    3.2789   -0.4125    0.0000 N   0  0  0  0  0  0  0  0  0  0  0  0
    2.5645    0.0000    0.0000 C   0  0  0  0  0  0  0  0  0  0  0  0
    1.7798   -0.2549    0.0000 C   0  0  0  0  0  0  0  0  0  0  0  0
    1.5249   -1.0396    0.0000 Br  0  0  0  0  0  0  0  0  0  0  0  0
    1.2949    0.4125    0.0000 C   0  0  0  0  0  0  0  0  0  0  0  0
    1.7798    1.0799    0.0000 N   0  0  0  0  0  0  0  0  0  0  0  0
    2.5645    0.8250    0.0000 N   0  0  0  0  0  0  0  0  0  0  0  0
    1.8500    2.0625    0.0000 C   0  0  0  0  0  0  0  0  0  0  0  0
    1.1355    2.4750    0.0000 C   0  0  0  0  0  0  0  0  0  0  0  0
    0.4210    2.0625    0.0000 Cl  0  0  0  0  0  0  0  0  0  0  0  0
  1  2  1  0
  2  3  1  0
  2  4  1  0
  4  5  2  0
  4  6  2  0
  4  7  1  0
  7  8  2  0
  8  9  1  0
  9 10  2  0
 10 11  1  0
 11 12  1  0
 12 13  2  0
 13 14  1  0
 14 15  1  0
 16 15  1  6
 16 17  1  0
 17 18  1  0
 19 18  1  0
 19 20  1  1
 19 21  1  0
 21 22  1  0
 16 22  1  0
 14 23  2  0
 23 24  1  0
 24 25  2  0
 25 26  1  0
 25 27  1  0
 27 28  2  0
 28 29  1  0
 12 29  1  0
 24 29  1  0
 10 30  1  0
 30 31  2  0
  7 31  1  0
 31 32  1  0
M  END
>  <pIC50>  (6) 
8.70

>  <chembl_id>  (6) 
CHEMBL178769

>  <canonical_smiles>  (6) 
CN(C)S(=O)(=O)c1ccc(Nc2cc(N[C@@H]3CC[C@@H](N)CC3)nc4c(Br)cnn24)cc1Cl

$$$$
CHEMBL178785
     RDKit          2D

 31 34  0  0  0  0  0  0  0  0999 V2000
   -1.0079    3.7125    0.0000 C   0  0  0  0  0  0  0  0  0  0  0  0
   -0.2934    4.1250    0.0000 N   0  0  0  0  0  0  0  0  0  0  0  0
   -0.2934    4.9500    0.0000 C   0  0  0  0  0  0  0  0  0  0  0  0
    0.4210    3.7125    0.0000 S   0  0  0  0  0  0  0  0  0  0  0  0
    0.0085    2.9980    0.0000 O   0  0  0  0  0  0  0  0  0  0  0  0
    0.8335    4.4270    0.0000 O   0  0  0  0  0  0  0  0  0  0  0  0
    1.1355    3.3000    0.0000 C   0  0  0  0  0  0  0  0  0  0  0  0
    1.8500    3.7125    0.0000 C   0  0  0  0  0  0  0  0  0  0  0  0
    2.5645    3.3000    0.0000 C   0  0  0  0  0  0  0  0  0  0  0  0
    2.5645    2.4750    0.0000 C   0  0  0  0  0  0  0  0  0  0  0  0
    3.2789    2.0625    0.0000 N   0  0  0  0  0  0  0  0  0  0  0  0
    3.2789    1.2375    0.0000 C   0  0  0  0  0  0  0  0  0  0  0  0
    3.9934    0.8250    0.0000 C   0  0  0  0  0  0  0  0  0  0  0  0
    3.9934    0.0000    0.0000 C   0  0  0  0  0  0  0  0  0  0  0  0
    4.7079   -0.4125    0.0000 N   0  0  0  0  0  0  0  0  0  0  0  0
    4.7079   -1.2375    0.0000 C   0  0  0  0  0  0  0  0  0  0  0  0
    5.4223   -1.6500    0.0000 C   0  0  0  0  0  0  0  0  0  0  0  0
    5.4223   -2.4750    0.0000 C   0  0  0  0  0  0  0  0  0  0  0  0
    4.7079   -2.8875    0.0000 C   0  0  0  0  0  0  0  0  0  0  0  0
    4.7079   -3.7125    0.0000 N   0  0  0  0  0  0  0  0  0  0  0  0
    3.9934   -2.4750    0.0000 C   0  0  0  0  0  0  0  0  0  0  0  0
    3.9934   -1.6500    0.0000 C   0  0  0  0  0  0  0  0  0  0  0  0
    3.2789   -0.4125    0.0000 N   0  0  0  0  0  0  0  0  0  0  0  0
    2.5645    0.0000    0.0000 C   0  0  0  0  0  0  0  0  0  0  0  0
    1.7798   -0.2549    0.0000 C   0  0  0  0  0  0  0  0  0  0  0  0
    1.5249   -1.0396    0.0000 Br  0  0  0  0  0  0  0  0  0  0  0  0
    1.2949    0.4125    0.0000 C   0  0  0  0  0  0  0  0  0  0  0  0
    1.7798    1.0799    0.0000 N   0  0  0  0  0  0  0  0  0  0  0  0
    2.5645    0.8250    0.0000 N   0  0  0  0  0  0  0  0  0  0  0  0
    1.8500    2.0625    0.0000 C   0  0  0  0  0  0  0  0  0  0  0  0
    1.1355    2.4750    0.0000 C   0  0  0  0  0  0  0  0  0  0  0  0
  1  2  1  0
  2  3  1  0
  2  4  1  0
  4  5  2  0
  4  6  2  0
  4  7  1  0
  7  8  2  0
  8  9  1  0
  9 10  2  0
 10 11  1  0
 11 12  1  0
 12 13  2  0
 13 14  1  0
 14 15  1  0
 16 15  1  6
 16 17  1  0
 17 18  1  0
 19 18  1  0
 19 20  1  1
 19 21  1  0
 21 22  1  0
 16 22  1  0
 14 23  2  0
 23 24  1  0
 24 25  2  0
 25 26  1  0
 25 27  1  0
 27 28  2  0
 28 29  1  0
 12 29  1  0
 24 29  1  0
 10 30  1  0
 30 31  2  0
  7 31  1  0
M  END
>  <pIC50>  (7) 
8.00

>  <chembl_id>  (7) 
CHEMBL178785

>  <canonical_smiles>  (7) 
CN(C)S(=O)(=O)c1ccc(Nc2cc(N[C@@H]3CC[C@@H](N)CC3)nc4c(Br)cnn24)cc1

$$$$
CHEMBL180714
     RDKit          2D

 37 40  0  0  0  0  0  0  0  0999 V2000
    5.4957    5.6479    0.0000 C   0  0  0  0  0  0  0  0  0  0  0  0
    4.7812    6.0604    0.0000 C   0  0  0  0  0  0  0  0  0  0  0  0
    4.0668    5.6479    0.0000 N   0  0  0  0  0  0  0  0  0  0  0  0
    3.3523    6.0604    0.0000 C   0  0  0  0  0  0  0  0  0  0  0  0
    2.6378    5.6479    0.0000 C   0  0  0  0  0  0  0  0  0  0  0  0
    4.0668    4.8229    0.0000 C   0  0  0  0  0  0  0  0  0  0  0  0
    4.7812    4.4104    0.0000 C   0  0  0  0  0  0  0  0  0  0  0  0
    4.7812    3.5854    0.0000 C   0  0  0  0  0  0  0  0  0  0  0  0
    4.0668    3.1729    0.0000 C   0  0  0  0  0  0  0  0  0  0  0  0
    3.3523    3.5854    0.0000 C   0  0  0  0  0  0  0  0  0  0  0  0
    3.3523    4.4104    0.0000 C   0  0  0  0  0  0  0  0  0  0  0  0
    4.0668    2.3479    0.0000 N   0  0  0  0  0  0  0  0  0  0  0  0
    3.3523    1.9354    0.0000 C   0  0  0  0  0  0  0  0  0  0  0  0
    3.3523    1.1104    0.0000 C   0  0  0  0  0  0  0  0  0  0  0  0
    2.6378    0.6979    0.0000 C   0  0  0  0  0  0  0  0  0  0  0  0
    2.6378   -0.1271    0.0000 N   0  0  0  0  0  0  0  0  0  0  0  0
    1.9233   -0.5396    0.0000 C   0  0  0  0  0  0  0  0  0  0  0  0
    1.9233   -1.3646    0.0000 C   0  0  0  0  0  0  0  0  0  0  0  0
    1.2089   -1.7771    0.0000 C   0  0  0  0  0  0  0  0  0  0  0  0
    0.4944   -1.3646    0.0000 C   0  0  0  0  0  0  0  0  0  0  0  0
    0.4944   -0.5396    0.0000 C   0  0  0  0  0  0  0  0  0  0  0  0
    1.2089   -0.1271    0.0000 C   0  0  0  0  0  0  0  0  0  0  0  0
   -0.2201   -1.7771    0.0000 S   0  0  0  0  0  0  0  0  0  0  0  0
   -0.6326   -1.0626    0.0000 O   0  0  0  0  0  0  0  0  0  0  0  0
    0.1924   -2.4915    0.0000 O   0  0  0  0  0  0  0  0  0  0  0  0
   -0.9345   -2.1896    0.0000 N   0  0  0  0  0  0  0  0  0  0  0  0
   -0.9345   -3.0146    0.0000 C   0  0  0  0  0  0  0  0  0  0  0  0
   -1.6490   -1.7771    0.0000 C   0  0  0  0  0  0  0  0  0  0  0  0
    1.9233    1.1104    0.0000 N   0  0  0  0  0  0  0  0  0  0  0  0
    1.1387    0.8555    0.0000 N   0  0  0  0  0  0  0  0  0  0  0  0
    0.6538    1.5229    0.0000 C   0  0  0  0  0  0  0  0  0  0  0  0
    1.1387    2.1904    0.0000 C   0  0  0  0  0  0  0  0  0  0  0  0
    0.8838    2.9750    0.0000 C   0  0  0  0  0  0  0  0  0  0  0  0
    1.4358    3.5881    0.0000 C   0  0  0  0  0  0  0  0  0  0  0  0
    0.0768    3.1465    0.0000 C   0  0  0  0  0  0  0  0  0  0  0  0
    1.9233    1.9354    0.0000 C   0  0  0  0  0  0  0  0  0  0  0  0
    2.6378    2.3479    0.0000 N   0  0  0  0  0  0  0  0  0  0  0  0
  1  2  1  0
  2  3  1  0
  3  4  1  0
  4  5  1  0
  6  3  1  6
  6  7  1  0
  7  8  1  0
  9  8  1  0
  9 10  1  0
 10 11  1  0
  6 11  1  0
  9 12  1  1
 12 13  1  0
 13 14  1  0
 14 15  2  0
 15 16  1  0
 16 17  1  0
 17 18  2  0
 18 19  1  0
 19 20  2  0
 20 21  1  0
 21 22  2  0
 17 22  1  0
 20 23  1  0
 23 24  2  0
 23 25  2  0
 23 26  1  0
 26 27  1  0
 26 28  1  0
 15 29  1  0
 29 30  1  0
 30 31  2  0
 31 32  1  0
 32 33  1  0
 33 34  1  0
 33 35  1  0
 32 36  2  0
 29 36  1  0
 36 37  1  0
 13 37  2  0
M  END
>  <pIC50>  (8) 
7.04

>  <chembl_id>  (8) 
CHEMBL180714

>  <canonical_smiles>  (8) 
CCN(CC)[C@@H]1CC[C@H](CC1)Nc2cc(Nc3ccc(cc3)S(=O)(=O)N(C)C)n4ncc(C(C)C)c4n2

$$$$
CHEMBL180814
     RDKit          2D

 33 36  0  0  0  0  0  0  0  0999 V2000
    1.4358   -2.7631    0.0000 C   0  0  0  0  0  0  0  0  0  0  0  0
    0.8838   -2.1500    0.0000 C   0  0  0  0  0  0  0  0  0  0  0  0
    0.0768   -2.3215    0.0000 C   0  0  0  0  0  0  0  0  0  0  0  0
    1.1387   -1.3654    0.0000 C   0  0  0  0  0  0  0  0  0  0  0  0
    0.6538   -0.6979    0.0000 C   0  0  0  0  0  0  0  0  0  0  0  0
    1.1387   -0.0305    0.0000 N   0  0  0  0  0  0  0  0  0  0  0  0
    1.9233   -0.2854    0.0000 N   0  0  0  0  0  0  0  0  0  0  0  0
    2.6378    0.1271    0.0000 C   0  0  0  0  0  0  0  0  0  0  0  0
    2.6378    0.9521    0.0000 N   0  0  0  0  0  0  0  0  0  0  0  0
    1.9233    1.3646    0.0000 C   0  0  0  0  0  0  0  0  0  0  0  0
    1.2089    0.9521    0.0000 C   0  0  0  0  0  0  0  0  0  0  0  0
    0.4944    1.3646    0.0000 C   0  0  0  0  0  0  0  0  0  0  0  0
    0.4944    2.1896    0.0000 C   0  0  0  0  0  0  0  0  0  0  0  0
    1.2089    2.6021    0.0000 C   0  0  0  0  0  0  0  0  0  0  0  0
    1.9233    2.1896    0.0000 C   0  0  0  0  0  0  0  0  0  0  0  0
   -0.2201    2.6021    0.0000 S   0  0  0  0  0  0  0  0  0  0  0  0
   -0.6326    1.8876    0.0000 O   0  0  0  0  0  0  0  0  0  0  0  0
    0.1924    3.3165    0.0000 O   0  0  0  0  0  0  0  0  0  0  0  0
   -0.9345    3.0146    0.0000 N   0  0  0  0  0  0  0  0  0  0  0  0
   -0.9345    3.8396    0.0000 C   0  0  0  0  0  0  0  0  0  0  0  0
   -1.6490    2.6021    0.0000 C   0  0  0  0  0  0  0  0  0  0  0  0
    3.3523   -0.2854    0.0000 C   0  0  0  0  0  0  0  0  0  0  0  0
    3.3523   -1.1104    0.0000 C   0  0  0  0  0  0  0  0  0  0  0  0
    4.0668   -1.5229    0.0000 O   0  0  0  0  0  0  0  0  0  0  0  0
    4.0668   -2.3479    0.0000 C   0  0  0  0  0  0  0  0  0  0  0  0
    4.7812   -2.7604    0.0000 C   0  0  0  0  0  0  0  0  0  0  0  0
    4.7812   -3.5854    0.0000 C   0  0  0  0  0  0  0  0  0  0  0  0
    4.0668   -3.9979    0.0000 C   0  0  0  0  0  0  0  0  0  0  0  0
    4.0668   -4.8229    0.0000 N   0  0  0  0  0  0  0  0  0  0  0  0
    3.3523   -3.5854    0.0000 C   0  0  0  0  0  0  0  0  0  0  0  0
    3.3523   -2.7604    0.0000 C   0  0  0  0  0  0  0  0  0  0  0  0
    2.6378   -1.5229    0.0000 N   0  0  0  0  0  0  0  0  0  0  0  0
    1.9233   -1.1104    0.0000 C   0  0  0  0  0  0  0  0  0  0  0  0
  1  2  1  0
  2  3  1  0
  2  4  1  0
  4  5  1  0
  5  6  2  0
  6  7  1  0
  7  8  1  0
  8  9  1  0
  9 10  1  0
 10 11  2  0
 11 12  1  0
 12 13  2  0
 13 14  1  0
 14 15  2  0
 10 15  1  0
 13 16  1  0
 16 17  2  0
 16 18  2  0
 16 19  1  0
 19 20  1  0
 19 21  1  0
  8 22  2  0
 22 23  1  0
 23 24  1  0
 25 24  1  6
 25 26  1  0
 26 27  1  0
 28 27  1  0
 28 29  1  1
 28 30  1  0
 30 31  1  0
 25 31  1  0
 23 32  2  0
 32 33  1  0
  4 33  2  0
  7 33  1  0
M  END
>  <pIC50>  (9) 
7.77

>  <chembl_id>  (9) 
CHEMBL180814

>  <canonical_smiles>  (9) 
CC(C)c1cnn2c(Nc3ccc(cc3)S(=O)(=O)N(C)C)cc(O[C@@H]4CC[C@@H](N)CC4)nc12

$$$$
CHEMBL181114
     RDKit          2D

 33 37  0  0  0  0  0  0  0  0999 V2000
    4.0668    5.6479    0.0000 N   0  0  0  0  0  0  0  0  0  0  0  0
    4.0668    4.8229    0.0000 C   0  0  0  0  0  0  0  0  0  0  0  0
    4.7812    4.4104    0.0000 C   0  0  0  0  0  0  0  0  0  0  0  0
    4.7812    3.5854    0.0000 C   0  0  0  0  0  0  0  0  0  0  0  0
    4.0668    3.1729    0.0000 C   0  0  0  0  0  0  0  0  0  0  0  0
    3.3523    3.5854    0.0000 C   0  0  0  0  0  0  0  0  0  0  0  0
    3.3523    4.4104    0.0000 C   0  0  0  0  0  0  0  0  0  0  0  0
    4.0668    2.3479    0.0000 N   0  0  0  0  0  0  0  0  0  0  0  0
    3.3523    1.9354    0.0000 C   0  0  0  0  0  0  0  0  0  0  0  0
    3.3523    1.1104    0.0000 C   0  0  0  0  0  0  0  0  0  0  0  0
    2.6378    0.6979    0.0000 C   0  0  0  0  0  0  0  0  0  0  0  0
    2.6378   -0.1271    0.0000 N   0  0  0  0  0  0  0  0  0  0  0  0
    1.9233   -0.5396    0.0000 C   0  0  0  0  0  0  0  0  0  0  0  0
    1.9233   -1.3646    0.0000 C   0  0  0  0  0  0  0  0  0  0  0  0
    1.2089   -1.7771    0.0000 C   0  0  0  0  0  0  0  0  0  0  0  0
    0.4944   -1.3646    0.0000 C   0  0  0  0  0  0  0  0  0  0  0  0
    0.4944   -0.5396    0.0000 C   0  0  0  0  0  0  0  0  0  0  0  0
    1.2089   -0.1271    0.0000 C   0  0  0  0  0  0  0  0  0  0  0  0
   -0.2201   -1.7771    0.0000 S   0  0  0  0  0  0  0  0  0  0  0  0
   -0.6326   -1.0626    0.0000 O   0  0  0  0  0  0  0  0  0  0  0  0
    0.1924   -2.4915    0.0000 O   0  0  0  0  0  0  0  0  0  0  0  0
   -0.9345   -2.1896    0.0000 C   0  0  0  0  0  0  0  0  0  0  0  0
   -1.0208   -3.0100    0.0000 C   0  0  0  0  0  0  0  0  0  0  0  0
   -1.8277   -3.1816    0.0000 C   0  0  0  0  0  0  0  0  0  0  0  0
   -2.2402   -2.4671    0.0000 C   0  0  0  0  0  0  0  0  0  0  0  0
   -1.6882   -1.8540    0.0000 S   0  0  0  0  0  0  0  0  0  0  0  0
    1.9233    1.1104    0.0000 N   0  0  0  0  0  0  0  0  0  0  0  0
    1.1387    0.8555    0.0000 N   0  0  0  0  0  0  0  0  0  0  0  0
    0.6538    1.5229    0.0000 C   0  0  0  0  0  0  0  0  0  0  0  0
    1.1387    2.1904    0.0000 C   0  0  0  0  0  0  0  0  0  0  0  0
    0.8838    2.9750    0.0000 Cl  0  0  0  0  0  0  0  0  0  0  0  0
    1.9233    1.9354    0.0000 C   0  0  0  0  0  0  0  0  0  0  0  0
    2.6378    2.3479    0.0000 N   0  0  0  0  0  0  0  0  0  0  0  0
  2  1  1  6
  2  3  1  0
  3  4  1  0
  5  4  1  0
  5  6  1  0
  6  7  1  0
  2  7  1  0
  5  8  1  1
  8  9  1  0
  9 10  1  0
 10 11  2  0
 11 12  1  0
 12 13  1  0
 13 14  2  0
 14 15  1  0
 15 16  2  0
 16 17  1  0
 17 18  2  0
 13 18  1  0
 16 19  1  0
 19 20  2  0
 19 21  2  0
 19 22  1  0
 22 23  2  0
 23 24  1  0
 24 25  2  0
 25 26  1  0
 22 26  1  0
 11 27  1  0
 27 28  1  0
 28 29  2  0
 29 30  1  0
 30 31  1  0
 30 32  2  0
 27 32  1  0
 32 33  1  0
  9 33  2  0
M  END
>  <pIC50>  (10) 
7.96

>  <chembl_id>  (10) 
CHEMBL181114

>  <canonical_smiles>  (10) 
N[C@@H]1CC[C@H](CC1)Nc2cc(Nc3ccc(cc3)S(=O)(=O)c4cccs4)n5ncc(Cl)c5n2

$$$$
CHEMBL181293
     RDKit          2D

 35 38  0  0  0  0  0  0  0  0999 V2000
    5.4957    5.6479    0.0000 C   0  0  0  0  0  0  0  0  0  0  0  0
    4.7812    6.0604    0.0000 C   0  0  0  0  0  0  0  0  0  0  0  0
    4.0668    5.6479    0.0000 N   0  0  0  0  0  0  0  0  0  0  0  0
    4.0668    4.8229    0.0000 C   0  0  0  0  0  0  0  0  0  0  0  0
    4.7812    4.4104    0.0000 C   0  0  0  0  0  0  0  0  0  0  0  0
    4.7812    3.5854    0.0000 C   0  0  0  0  0  0  0  0  0  0  0  0
    4.0668    3.1729    0.0000 C   0  0  0  0  0  0  0  0  0  0  0  0
    3.3523    3.5854    0.0000 C   0  0  0  0  0  0  0  0  0  0  0  0
    3.3523    4.4104    0.0000 C   0  0  0  0  0  0  0  0  0  0  0  0
    4.0668    2.3479    0.0000 N   0  0  0  0  0  0  0  0  0  0  0  0
    3.3523    1.9354    0.0000 C   0  0  0  0  0  0  0  0  0  0  0  0
    3.3523    1.1104    0.0000 C   0  0  0  0  0  0  0  0  0  0  0  0
    2.6378    0.6979    0.0000 C   0  0  0  0  0  0  0  0  0  0  0  0
    2.6378   -0.1271    0.0000 N   0  0  0  0  0  0  0  0  0  0  0  0
    1.9233   -0.5396    0.0000 C   0  0  0  0  0  0  0  0  0  0  0  0
    1.9233   -1.3646    0.0000 C   0  0  0  0  0  0  0  0  0  0  0  0
    1.2089   -1.7771    0.0000 C   0  0  0  0  0  0  0  0  0  0  0  0
    0.4944   -1.3646    0.0000 C   0  0  0  0  0  0  0  0  0  0  0  0
    0.4944   -0.5396    0.0000 C   0  0  0  0  0  0  0  0  0  0  0  0
    1.2089   -0.1271    0.0000 C   0  0  0  0  0  0  0  0  0  0  0  0
   -0.2201   -1.7771    0.0000 S   0  0  0  0  0  0  0  0  0  0  0  0
   -0.6326   -1.0626    0.0000 O   0  0  0  0  0  0  0  0  0  0  0  0
    0.1924   -2.4915    0.0000 O   0  0  0  0  0  0  0  0  0  0  0  0
   -0.9345   -2.1896    0.0000 N   0  0  0  0  0  0  0  0  0  0  0  0
   -0.9345   -3.0146    0.0000 C   0  0  0  0  0  0  0  0  0  0  0  0
   -1.6490   -1.7771    0.0000 C   0  0  0  0  0  0  0  0  0  0  0  0
    1.9233    1.1104    0.0000 N   0  0  0  0  0  0  0  0  0  0  0  0
    1.1387    0.8555    0.0000 N   0  0  0  0  0  0  0  0  0  0  0  0
    0.6538    1.5229    0.0000 C   0  0  0  0  0  0  0  0  0  0  0  0
    1.1387    2.1904    0.0000 C   0  0  0  0  0  0  0  0  0  0  0  0
    0.8838    2.9750    0.0000 C   0  0  0  0  0  0  0  0  0  0  0  0
    1.4358    3.5881    0.0000 C   0  0  0  0  0  0  0  0  0  0  0  0
    0.0768    3.1465    0.0000 C   0  0  0  0  0  0  0  0  0  0  0  0
    1.9233    1.9354    0.0000 C   0  0  0  0  0  0  0  0  0  0  0  0
    2.6378    2.3479    0.0000 N   0  0  0  0  0  0  0  0  0  0  0  0
  1  2  1  0
  2  3  1  0
  4  3  1  6
  4  5  1  0
  5  6  1  0
  7  6  1  0
  7  8  1  0
  8  9  1  0
  4  9  1  0
  7 10  1  1
 10 11  1  0
 11 12  1  0
 12 13  2  0
 13 14  1  0
 14 15  1  0
 15 16  2  0
 16 17  1  0
 17 18  2  0
 18 19  1  0
 19 20  2  0
 15 20  1  0
 18 21  1  0
 21 22  2  0
 21 23  2  0
 21 24  1  0
 24 25  1  0
 24 26  1  0
 13 27  1  0
 27 28  1  0
 28 29  2  0
 29 30  1  0
 30 31  1  0
 31 32  1  0
 31 33  1  0
 30 34  2  0
 27 34  1  0
 34 35  1  0
 11 35  2  0
M  END
>  <pIC50>  (11) 
7.21

>  <chembl_id>  (11) 
CHEMBL181293

>  <canonical_smiles>  (11) 
CCN[C@@H]1CC[C@H](CC1)Nc2cc(Nc3ccc(cc3)S(=O)(=O)N(C)C)n4ncc(C(C)C)c4n2

$$$$
CHEMBL181606
     RDKit          2D

 33 36  0  0  0  0  0  0  0  0999 V2000
    1.4358   -2.7631    0.0000 C   0  0  0  0  0  0  0  0  0  0  0  0
    0.8838   -2.1500    0.0000 C   0  0  0  0  0  0  0  0  0  0  0  0
    0.0768   -2.3215    0.0000 C   0  0  0  0  0  0  0  0  0  0  0  0
    1.1387   -1.3654    0.0000 C   0  0  0  0  0  0  0  0  0  0  0  0
    0.6538   -0.6979    0.0000 C   0  0  0  0  0  0  0  0  0  0  0  0
    1.1387   -0.0305    0.0000 N   0  0  0  0  0  0  0  0  0  0  0  0
    1.9233   -0.2854    0.0000 N   0  0  0  0  0  0  0  0  0  0  0  0
    2.6378    0.1271    0.0000 C   0  0  0  0  0  0  0  0  0  0  0  0
    2.6378    0.9521    0.0000 N   0  0  0  0  0  0  0  0  0  0  0  0
    1.9233    1.3646    0.0000 C   0  0  0  0  0  0  0  0  0  0  0  0
    1.2089    0.9521    0.0000 C   0  0  0  0  0  0  0  0  0  0  0  0
    0.4944    1.3646    0.0000 C   0  0  0  0  0  0  0  0  0  0  0  0
    0.4944    2.1896    0.0000 C   0  0  0  0  0  0  0  0  0  0  0  0
    1.2089    2.6021    0.0000 C   0  0  0  0  0  0  0  0  0  0  0  0
    1.9233    2.1896    0.0000 C   0  0  0  0  0  0  0  0  0  0  0  0
   -0.2201    2.6021    0.0000 S   0  0  0  0  0  0  0  0  0  0  0  0
   -0.6326    1.8876    0.0000 O   0  0  0  0  0  0  0  0  0  0  0  0
    0.1924    3.3165    0.0000 O   0  0  0  0  0  0  0  0  0  0  0  0
   -0.9345    3.0146    0.0000 N   0  0  0  0  0  0  0  0  0  0  0  0
   -0.9345    3.8396    0.0000 C   0  0  0  0  0  0  0  0  0  0  0  0
   -1.6490    2.6021    0.0000 C   0  0  0  0  0  0  0  0  0  0  0  0
    3.3523   -0.2854    0.0000 C   0  0  0  0  0  0  0  0  0  0  0  0
    3.3523   -1.1104    0.0000 C   0  0  0  0  0  0  0  0  0  0  0  0
    4.0668   -1.5229    0.0000 N   0  0  0  0  0  0  0  0  0  0  0  0
    4.0668   -2.3479    0.0000 C   0  0  0  0  0  0  0  0  0  0  0  0
    4.7812   -2.7604    0.0000 C   0  0  0  0  0  0  0  0  0  0  0  0
    4.7812   -3.5854    0.0000 C   0  0  0  0  0  0  0  0  0  0  0  0
    4.0668   -3.9979    0.0000 C   0  0  0  0  0  0  0  0  0  0  0  0
    3.3523   -3.5854    0.0000 C   0  0  0  0  0  0  0  0  0  0  0  0
    2.6378   -3.9979    0.0000 N   0  0  0  0  0  0  0  0  0  0  0  0
    3.3523   -2.7604    0.0000 C   0  0  0  0  0  0  0  0  0  0  0  0
    2.6378   -1.5229    0.0000 N   0  0  0  0  0  0  0  0  0  0  0  0
    1.9233   -1.1104    0.0000 C   0  0  0  0  0  0  0  0  0  0  0  0
  1  2  1  0
  2  3  1  0
  2  4  1  0
  4  5  1  0
  5  6  2  0
  6  7  1  0
  7  8  1  0
  8  9  1  0
  9 10  1  0
 10 11  2  0
 11 12  1  0
 12 13  2  0
 13 14  1  0
 14 15  2  0
 10 15  1  0
 13 16  1  0
 16 17  2  0
 16 18  2  0
 16 19  1  0
 19 20  1  0
 19 21  1  0
  8 22  2  0
 22 23  1  0
 23 24  1  0
 24 25  1  0
 25 26  1  0
 26 27  1  0
 27 28  1  0
 28 29  1  0
 29 30  1  0
 29 31  1  0
 25 31  1  0
 23 32  2  0
 32 33  1  0
  4 33  2  0
  7 33  1  0
M  END
>  <pIC50>  (12) 
5.68

>  <chembl_id>  (12) 
CHEMBL181606

>  <canonical_smiles>  (12) 
CC(C)c1cnn2c(Nc3ccc(cc3)S(=O)(=O)N(C)C)cc(NC4CCCC(N)C4)nc12

$$$$
CHEMBL188938
     RDKit          2D

 25 28  0  0  0  0  0  0  0  0999 V2000
    1.2652   -7.9124    0.0000 O   0  0  0  0  0  0  0  0  0  0  0  0
    0.7132   -7.2993    0.0000 N   0  0  0  0  0  0  0  0  0  0  0  0
   -0.0938   -7.4708    0.0000 O   0  0  0  0  0  0  0  0  0  0  0  0
    0.9681   -6.5147    0.0000 C   0  0  0  0  0  0  0  0  0  0  0  0
    0.4161   -5.9016    0.0000 C   0  0  0  0  0  0  0  0  0  0  0  0
    0.6710   -5.1170    0.0000 C   0  0  0  0  0  0  0  0  0  0  0  0
    1.4780   -4.9454    0.0000 C   0  0  0  0  0  0  0  0  0  0  0  0
    1.7329   -4.1608    0.0000 N   0  0  0  0  0  0  0  0  0  0  0  0
    1.1809   -3.5477    0.0000 C   0  0  0  0  0  0  0  0  0  0  0  0
    0.3739   -3.7192    0.0000 N   0  0  0  0  0  0  0  0  0  0  0  0
   -0.1781   -3.1062    0.0000 C   0  0  0  0  0  0  0  0  0  0  0  0
    0.0768   -2.3215    0.0000 C   0  0  0  0  0  0  0  0  0  0  0  0
    0.8838   -2.1500    0.0000 C   0  0  0  0  0  0  0  0  0  0  0  0
    1.4358   -2.7631    0.0000 N   0  0  0  0  0  0  0  0  0  0  0  0
    1.1387   -1.3654    0.0000 C   0  0  0  0  0  0  0  0  0  0  0  0
    0.6538   -0.6979    0.0000 C   0  0  0  0  0  0  0  0  0  0  0  0
    1.1387   -0.0305    0.0000 N   0  0  0  0  0  0  0  0  0  0  0  0
    1.9233   -0.2854    0.0000 N   0  0  0  0  0  0  0  0  0  0  0  0
    2.6378    0.1271    0.0000 N   0  0  0  0  0  0  0  0  0  0  0  0
    3.3523   -0.2854    0.0000 C   0  0  0  0  0  0  0  0  0  0  0  0
    3.3523   -1.1104    0.0000 C   0  0  0  0  0  0  0  0  0  0  0  0
    2.6378   -1.5229    0.0000 C   0  0  0  0  0  0  0  0  0  0  0  0
    1.9233   -1.1104    0.0000 C   0  0  0  0  0  0  0  0  0  0  0  0
    2.0300   -5.5585    0.0000 C   0  0  0  0  0  0  0  0  0  0  0  0
    1.7751   -6.3432    0.0000 C   0  0  0  0  0  0  0  0  0  0  0  0
  1  2  1  0
  2  3  2  0
  2  4  1  0
  4  5  2  0
  5  6  1  0
  6  7  2  0
  7  8  1  0
  8  9  1  0
  9 10  2  0
 10 11  1  0
 11 12  2  0
 12 13  1  0
 13 14  2  0
  9 14  1  0
 13 15  1  0
 15 16  1  0
 16 17  2  0
 17 18  1  0
 18 19  1  0
 19 20  2  0
 20 21  1  0
 21 22  2  0
 22 23  1  0
 15 23  2  0
 18 23  1  0
  7 24  1  0
 24 25  2  0
  4 25  1  0
M  CHG  2   1  -1   2   1
M  END
>  <pIC50>  (13) 
8.52

>  <chembl_id>  (13) 
CHEMBL188938

>  <canonical_smiles>  (13) 
[O-][N+](=O)c1ccc(Nc2nccc(n2)c3cnn4ncccc34)cc1

$$$$
CHEMBL189657
     RDKit          2D

 17 19  0  0  0  0  0  0  0  0999 V2000
    1.4358   -2.7631    0.0000 C   0  0  0  0  0  0  0  0  0  0  0  0
    0.8838   -2.1500    0.0000 C   0  0  0  0  0  0  0  0  0  0  0  0
    1.1387   -1.3654    0.0000 N   0  0  0  0  0  0  0  0  0  0  0  0
    0.6538   -0.6979    0.0000 C   0  0  0  0  0  0  0  0  0  0  0  0
    1.1387   -0.0305    0.0000 N   0  0  0  0  0  0  0  0  0  0  0  0
    1.9233   -0.2854    0.0000 C   0  0  0  0  0  0  0  0  0  0  0  0
    2.6378    0.1271    0.0000 C   0  0  0  0  0  0  0  0  0  0  0  0
    3.3523   -0.2854    0.0000 N   0  0  0  0  0  0  0  0  0  0  0  0
    3.3523   -1.1104    0.0000 C   0  0  0  0  0  0  0  0  0  0  0  0
    2.6378   -1.5229    0.0000 C   0  0  0  0  0  0  0  0  0  0  0  0
    1.9233   -1.1104    0.0000 C   0  0  0  0  0  0  0  0  0  0  0  0
   -0.1712   -0.6979    0.0000 C   0  0  0  0  0  0  0  0  0  0  0  0
   -0.6561   -1.3654    0.0000 N   0  0  0  0  0  0  0  0  0  0  0  0
   -1.4407   -1.1104    0.0000 O   0  0  0  0  0  0  0  0  0  0  0  0
   -1.4407   -0.2854    0.0000 N   0  0  0  0  0  0  0  0  0  0  0  0
   -0.6561   -0.0305    0.0000 C   0  0  0  0  0  0  0  0  0  0  0  0
   -0.4012    0.7541    0.0000 N   0  0  0  0  0  0  0  0  0  0  0  0
  1  2  1  0
  2  3  1  0
  3  4  1  0
  4  5  2  0
  5  6  1  0
  6  7  2  0
  7  8  1  0
  8  9  2  0
  9 10  1  0
 10 11  2  0
  3 11  1  0
  6 11  1  0
  4 12  1  0
 12 13  2  0
 13 14  1  0
 14 15  1  0
 15 16  2  0
 12 16  1  0
 16 17  1  0
M  END
>  <pIC50>  (14) 
6.77

>  <chembl_id>  (14) 
CHEMBL189657

>  <canonical_smiles>  (14) 
CCn1c(nc2cnccc12)c3nonc3N

$$$$
CHEMBL189937
     RDKit          2D

 31 35  0  0  0  0  0  0  0  0999 V2000
    1.4289   -2.4750    0.0000 C   0  0  0  0  0  0  0  0  0  0  0  0
    1.4289   -1.6500    0.0000 C   0  0  0  0  0  0  0  0  0  0  0  0
    0.7145   -1.2375    0.0000 C   0  0  0  0  0  0  0  0  0  0  0  0
    0.0000   -1.6500    0.0000 Br  0  0  0  0  0  0  0  0  0  0  0  0
    0.7145   -0.4125    0.0000 C   0  0  0  0  0  0  0  0  0  0  0  0
    0.0000    0.0000    0.0000 O   0  0  0  0  0  0  0  0  0  0  0  0
    1.4289    0.0000    0.0000 N   0  0  0  0  0  0  0  0  0  0  0  0
    1.4289    0.8250    0.0000 C   0  0  0  0  0  0  0  0  0  0  0  0
    0.7615    1.3099    0.0000 C   0  0  0  0  0  0  0  0  0  0  0  0
    1.0164    2.0945    0.0000 C   0  0  0  0  0  0  0  0  0  0  0  0
    1.8414    2.0945    0.0000 C   0  0  0  0  0  0  0  0  0  0  0  0
    2.0964    1.3099    0.0000 C   0  0  0  0  0  0  0  0  0  0  0  0
    2.1434   -0.4125    0.0000 C   0  0  0  0  0  0  0  0  0  0  0  0
    2.8579    0.0000    0.0000 N   0  0  0  0  0  0  0  0  0  0  0  0
    3.5724   -0.4125    0.0000 C   0  0  0  0  0  0  0  0  0  0  0  0
    4.2868    0.0000    0.0000 N   0  0  0  0  0  0  0  0  0  0  0  0
    5.0013   -0.4125    0.0000 C   0  0  0  0  0  0  0  0  0  0  0  0
    5.7158    0.0000    0.0000 C   0  0  0  0  0  0  0  0  0  0  0  0
    6.4302   -0.4125    0.0000 C   0  0  0  0  0  0  0  0  0  0  0  0
    6.4302   -1.2375    0.0000 C   0  0  0  0  0  0  0  0  0  0  0  0
    5.7158   -1.6500    0.0000 C   0  0  0  0  0  0  0  0  0  0  0  0
    5.0013   -1.2375    0.0000 C   0  0  0  0  0  0  0  0  0  0  0  0
    7.1447   -1.6500    0.0000 N   0  0  0  0  0  0  0  0  0  0  0  0
    7.8592   -1.2375    0.0000 C   0  0  0  0  0  0  0  0  0  0  0  0
    8.5737   -1.6500    0.0000 C   0  0  0  0  0  0  0  0  0  0  0  0
    8.5737   -2.4750    0.0000 N   0  0  0  0  0  0  0  0  0  0  0  0
    7.8592   -2.8875    0.0000 C   0  0  0  0  0  0  0  0  0  0  0  0
    7.1447   -2.4750    0.0000 C   0  0  0  0  0  0  0  0  0  0  0  0
    3.5724   -1.2375    0.0000 N   0  0  0  0  0  0  0  0  0  0  0  0
    2.8579   -1.6500    0.0000 C   0  0  0  0  0  0  0  0  0  0  0  0
    2.1434   -1.2375    0.0000 C   0  0  0  0  0  0  0  0  0  0  0  0
  1  2  1  0
  2  3  2  0
  3  4  1  0
  3  5  1  0
  5  6  2  0
  5  7  1  0
  7  8  1  0
  8  9  1  0
  9 10  1  0
 10 11  1  0
 11 12  1  0
  8 12  1  0
  7 13  1  0
 13 14  2  0
 14 15  1  0
 15 16  1  0
 16 17  1  0
 17 18  2  0
 18 19  1  0
 19 20  2  0
 20 21  1  0
 21 22  2  0
 17 22  1  0
 20 23  1  0
 23 24  1  0
 24 25  1  0
 25 26  1  0
 26 27  1  0
 27 28  1  0
 23 28  1  0
 15 29  2  0
 29 30  1  0
 30 31  2  0
  2 31  1  0
 13 31  1  0
M  END
>  <pIC50>  (15) 
6.36

>  <chembl_id>  (15) 
CHEMBL189937

>  <canonical_smiles>  (15) 
CC1=C(Br)C(=O)N(C2CCCC2)c3nc(Nc4ccc(cc4)N5CCNCC5)ncc13

$$$$
CHEMBL190281
     RDKit          2D

 30 34  0  0  0  0  0  0  0  0999 V2000
    0.0000    0.0000    0.0000 Br  0  0  0  0  0  0  0  0  0  0  0  0
    0.7145   -0.4125    0.0000 C   0  0  0  0  0  0  0  0  0  0  0  0
    1.4289    0.0000    0.0000 C   0  0  0  0  0  0  0  0  0  0  0  0
    2.1434   -0.4125    0.0000 C   0  0  0  0  0  0  0  0  0  0  0  0
    2.8579    0.0000    0.0000 C   0  0  0  0  0  0  0  0  0  0  0  0
    3.5724   -0.4125    0.0000 N   0  0  0  0  0  0  0  0  0  0  0  0
    3.5724   -1.2375    0.0000 C   0  0  0  0  0  0  0  0  0  0  0  0
    4.2868   -1.6500    0.0000 N   0  0  0  0  0  0  0  0  0  0  0  0
    4.2868   -2.4750    0.0000 C   0  0  0  0  0  0  0  0  0  0  0  0
    5.0013   -2.8875    0.0000 C   0  0  0  0  0  0  0  0  0  0  0  0
    5.0013   -3.7125    0.0000 C   0  0  0  0  0  0  0  0  0  0  0  0
    4.2868   -4.1250    0.0000 C   0  0  0  0  0  0  0  0  0  0  0  0
    3.5724   -3.7125    0.0000 C   0  0  0  0  0  0  0  0  0  0  0  0
    3.5724   -2.8875    0.0000 C   0  0  0  0  0  0  0  0  0  0  0  0
    4.2868   -4.9500    0.0000 N   0  0  0  0  0  0  0  0  0  0  0  0
    5.0013   -5.3625    0.0000 C   0  0  0  0  0  0  0  0  0  0  0  0
    5.0013   -6.1875    0.0000 C   0  0  0  0  0  0  0  0  0  0  0  0
    4.2868   -6.6000    0.0000 N   0  0  0  0  0  0  0  0  0  0  0  0
    3.5724   -6.1875    0.0000 C   0  0  0  0  0  0  0  0  0  0  0  0
    3.5724   -5.3625    0.0000 C   0  0  0  0  0  0  0  0  0  0  0  0
    2.8579   -1.6500    0.0000 N   0  0  0  0  0  0  0  0  0  0  0  0
    2.1434   -1.2375    0.0000 C   0  0  0  0  0  0  0  0  0  0  0  0
    1.4289   -1.6500    0.0000 N   0  0  0  0  0  0  0  0  0  0  0  0
    1.4289   -2.4750    0.0000 C   0  0  0  0  0  0  0  0  0  0  0  0
    2.0964   -2.9599    0.0000 C   0  0  0  0  0  0  0  0  0  0  0  0
    1.8414   -3.7445    0.0000 C   0  0  0  0  0  0  0  0  0  0  0  0
    1.0164   -3.7445    0.0000 C   0  0  0  0  0  0  0  0  0  0  0  0
    0.7615   -2.9599    0.0000 C   0  0  0  0  0  0  0  0  0  0  0  0
    0.7145   -1.2375    0.0000 C   0  0  0  0  0  0  0  0  0  0  0  0
    0.0000   -1.6500    0.0000 O   0  0  0  0  0  0  0  0  0  0  0  0
  1  2  1  0
  2  3  2  0
  3  4  1  0
  4  5  2  0
  5  6  1  0
  6  7  2  0
  7  8  1  0
  8  9  1  0
  9 10  2  0
 10 11  1  0
 11 12  2  0
 12 13  1  0
 13 14  2  0
  9 14  1  0
 12 15  1  0
 15 16  1  0
 16 17  1  0
 17 18  1  0
 18 19  1  0
 19 20  1  0
 15 20  1  0
  7 21  1  0
 21 22  2  0
  4 22  1  0
 22 23  1  0
 23 24  1  0
 24 25  1  0
 25 26  1  0
 26 27  1  0
 27 28  1  0
 24 28  1  0
 23 29  1  0
  2 29  1  0
 29 30  2  0
M  END
>  <pIC50>  (16) 
7.37

>  <chembl_id>  (16) 
CHEMBL190281

>  <canonical_smiles>  (16) 
BrC1=Cc2cnc(Nc3ccc(cc3)N4CCNCC4)nc2N(C5CCCC5)C1=O

$$$$
CHEMBL191003
     RDKit          2D

 27 29  0  0  0  0  0  0  0  0999 V2000
    2.0367   -0.4741    0.0000 N   0  0  0  0  0  0  0  0  0  0  0  0
    2.0367   -1.2991    0.0000 C   0  0  0  0  0  0  0  0  0  0  0  0
    1.3693   -1.7840    0.0000 N   0  0  0  0  0  0  0  0  0  0  0  0
    1.6242   -2.5687    0.0000 C   0  0  0  0  0  0  0  0  0  0  0  0
    1.1393   -3.2361    0.0000 N   0  0  0  0  0  0  0  0  0  0  0  0
    0.3188   -3.1499    0.0000 C   0  0  0  0  0  0  0  0  0  0  0  0
   -0.1661   -3.8173    0.0000 C   0  0  0  0  0  0  0  0  0  0  0  0
   -0.9866   -3.7311    0.0000 C   0  0  0  0  0  0  0  0  0  0  0  0
   -1.3222   -2.9774    0.0000 C   0  0  0  0  0  0  0  0  0  0  0  0
   -0.8372   -2.3099    0.0000 C   0  0  0  0  0  0  0  0  0  0  0  0
   -0.0168   -2.3962    0.0000 C   0  0  0  0  0  0  0  0  0  0  0  0
   -2.1426   -2.8911    0.0000 S   0  0  0  0  0  0  0  0  0  0  0  0
   -2.9631   -2.8049    0.0000 O   0  0  0  0  0  0  0  0  0  0  0  0
   -2.2289   -3.7116    0.0000 O   0  0  0  0  0  0  0  0  0  0  0  0
   -2.0564   -2.0707    0.0000 N   0  0  0  0  0  0  0  0  0  0  0  0
    2.4492   -2.5687    0.0000 N   0  0  0  0  0  0  0  0  0  0  0  0
    2.7041   -1.7840    0.0000 N   0  0  0  0  0  0  0  0  0  0  0  0
    3.4888   -1.5291    0.0000 C   0  0  0  0  0  0  0  0  0  0  0  0
    3.6603   -0.7221    0.0000 O   0  0  0  0  0  0  0  0  0  0  0  0
    4.1019   -2.0811    0.0000 C   0  0  0  0  0  0  0  0  0  0  0  0
    4.8865   -1.8262    0.0000 C   0  0  0  0  0  0  0  0  0  0  0  0
    5.0580   -1.0192    0.0000 F   0  0  0  0  0  0  0  0  0  0  0  0
    5.4996   -2.3782    0.0000 C   0  0  0  0  0  0  0  0  0  0  0  0
    5.3281   -3.1852    0.0000 C   0  0  0  0  0  0  0  0  0  0  0  0
    4.5434   -3.4401    0.0000 C   0  0  0  0  0  0  0  0  0  0  0  0
    3.9303   -2.8881    0.0000 C   0  0  0  0  0  0  0  0  0  0  0  0
    3.1457   -3.1430    0.0000 F   0  0  0  0  0  0  0  0  0  0  0  0
  1  2  1  0
  2  3  2  0
  3  4  1  0
  4  5  1  0
  5  6  1  0
  6  7  2  0
  7  8  1  0
  8  9  2  0
  9 10  1  0
 10 11  2  0
  6 11  1  0
  9 12  1  0
 12 13  2  0
 12 14  2  0
 12 15  1  0
  4 16  2  0
 16 17  1  0
  2 17  1  0
 17 18  1  0
 18 19  2  0
 18 20  1  0
 20 21  2  0
 21 22  1  0
 21 23  1  0
 23 24  2  0
 24 25  1  0
 25 26  2  0
 20 26  1  0
 26 27  1  0
M  END
>  <pIC50>  (17) 
8.70

>  <chembl_id>  (17) 
CHEMBL191003

>  <canonical_smiles>  (17) 
Nc1nc(Nc2ccc(cc2)S(=O)(=O)N)nn1C(=O)c3c(F)cccc3F

$$$$
CHEMBL1922120
     RDKit          2D

 28 30  0  0  1  0  0  0  0  0999 V2000
    0.0000   -2.4750    0.0000 C   0  0  0  0  0  0  0  0  0  0  0  0
    0.7145   -2.8875    0.0000 C   0  0  0  0  0  0  0  0  0  0  0  0
    1.4289   -2.4750    0.0000 C   0  0  0  0  0  0  0  0  0  0  0  0
    1.4289   -1.6500    0.0000 O   0  0  0  0  0  0  0  0  0  0  0  0
    2.1434   -2.8875    0.0000 C   0  0  0  0  0  0  0  0  0  0  0  0
    2.1434   -3.7125    0.0000 C   0  0  0  0  0  0  0  0  0  0  0  0
    2.8579   -4.1250    0.0000 C   0  0  0  0  0  0  0  0  0  0  0  0
    2.8579   -2.4750    0.0000 N   0  0  0  0  0  0  0  0  0  0  0  0
    3.5724   -2.8875    0.0000 C   0  0  0  0  0  0  0  0  0  0  0  0
    4.2868   -2.4750    0.0000 N   0  0  0  0  0  0  0  0  0  0  0  0
    5.0013   -2.8875    0.0000 C   0  0  0  0  0  0  0  0  0  0  0  0
    5.7158   -2.4750    0.0000 N   0  0  0  0  0  0  0  0  0  0  0  0
    5.7158   -1.6500    0.0000 C   0  0  0  0  0  0  0  0  0  0  0  0
    6.4302   -1.2375    0.0000 C   0  0  0  0  0  0  0  0  0  0  0  0
    6.4302   -0.4125    0.0000 C   0  0  0  0  0  0  0  0  0  0  0  0
    7.1447    0.0000    0.0000 C   0  0  0  0  0  0  0  0  0  0  0  0
    7.8592   -0.4125    0.0000 C   0  0  0  0  0  0  0  0  0  0  0  0
    7.8592   -1.2375    0.0000 N   0  0  0  0  0  0  0  0  0  0  0  0
    7.1447   -1.6500    0.0000 C   0  0  0  0  0  0  0  0  0  0  0  0
    5.0013   -3.7125    0.0000 C   0  0  0  0  0  0  0  0  0  0  0  0
    5.6144   -4.2645    0.0000 N   0  0  0  0  0  0  0  0  0  0  0  0
    5.2788   -5.0182    0.0000 C   0  0  0  0  0  0  0  0  0  0  0  0
    4.4584   -4.9320    0.0000 N   0  0  0  0  0  0  0  0  0  0  0  0
    3.9063   -5.5451    0.0000 C   0  0  0  0  0  0  0  0  0  0  0  0
    3.0993   -5.3735    0.0000 C   0  0  0  0  0  0  0  0  0  0  0  0
    4.1613   -6.3297    0.0000 C   0  0  0  0  0  0  0  0  0  0  0  0
    4.2868   -4.1250    0.0000 C   0  0  0  0  0  0  0  0  0  0  0  0
    3.5724   -3.7125    0.0000 N   0  0  0  0  0  0  0  0  0  0  0  0
  1  2  1  0
  2  3  1  0
  3  4  1  0
  5  3  1  0
  5  6  1  6
  6  7  1  0
  5  8  1  0
  8  9  1  0
  9 10  2  0
 10 11  1  0
 11 12  1  0
 12 13  1  0
 13 14  1  0
 14 15  2  0
 15 16  1  0
 16 17  2  0
 17 18  1  0
 18 19  2  0
 14 19  1  0
 11 20  2  0
 20 21  1  0
 21 22  2  0
 22 23  1  0
 23 24  1  0
 24 25  1  0
 24 26  1  0
 23 27  1  0
 20 27  1  0
 27 28  2  0
  9 28  1  0
M  END
>  <pIC50>  (18) 
6.66

>  <chembl_id>  (18) 
CHEMBL1922120

>  <canonical_smiles>  (18) 
CCC(O)[C@@H](CC)Nc1nc(NCc2cccnc2)c3ncn(C(C)C)c3n1

$$$$
CHEMBL1922121
     RDKit          2D

 29 31  0  0  1  0  0  0  0  0999 V2000
    0.7145   -2.8875    0.0000 C   0  0  0  0  0  0  0  0  0  0  0  0
    0.0000   -2.4750    0.0000 C   0  0  0  0  0  0  0  0  0  0  0  0
    0.0000   -1.6500    0.0000 C   0  0  0  0  0  0  0  0  0  0  0  0
   -0.7145   -1.2375    0.0000 N   0  0  0  0  0  0  0  0  0  0  0  0
   -1.4289   -1.6500    0.0000 C   0  0  0  0  0  0  0  0  0  0  0  0
   -1.4289   -2.4750    0.0000 N   0  0  0  0  0  0  0  0  0  0  0  0
   -2.1434   -2.8875    0.0000 C   0  0  0  0  0  0  0  0  0  0  0  0
   -2.1434   -3.7125    0.0000 N   0  0  0  0  0  0  0  0  0  0  0  0
   -2.8579   -4.1250    0.0000 C   0  0  0  0  0  0  0  0  0  0  0  0
   -2.8579   -4.9500    0.0000 C   0  0  0  0  0  0  0  0  0  0  0  0
   -2.1434   -5.3625    0.0000 C   0  0  0  0  0  0  0  0  0  0  0  0
   -2.1434   -6.1875    0.0000 C   0  0  0  0  0  0  0  0  0  0  0  0
   -2.8579   -6.6000    0.0000 C   0  0  0  0  0  0  0  0  0  0  0  0
   -3.5724   -6.1875    0.0000 N   0  0  0  0  0  0  0  0  0  0  0  0
   -3.5724   -5.3625    0.0000 C   0  0  0  0  0  0  0  0  0  0  0  0
   -2.8579   -2.4750    0.0000 C   0  0  0  0  0  0  0  0  0  0  0  0
   -3.6425   -2.7299    0.0000 N   0  0  0  0  0  0  0  0  0  0  0  0
   -4.1274   -2.0625    0.0000 C   0  0  0  0  0  0  0  0  0  0  0  0
   -3.6425   -1.3951    0.0000 N   0  0  0  0  0  0  0  0  0  0  0  0
   -3.8974   -0.6104    0.0000 C   0  0  0  0  0  0  0  0  0  0  0  0
   -3.3454    0.0027    0.0000 C   0  0  0  0  0  0  0  0  0  0  0  0
   -4.7044   -0.4389    0.0000 C   0  0  0  0  0  0  0  0  0  0  0  0
   -2.8579   -1.6500    0.0000 C   0  0  0  0  0  0  0  0  0  0  0  0
   -2.1434   -1.2375    0.0000 N   0  0  0  0  0  0  0  0  0  0  0  0
    0.7145   -1.2375    0.0000 C   0  0  0  0  0  0  0  0  0  0  0  0
    0.7145   -0.4125    0.0000 O   0  0  0  0  0  0  0  0  0  0  0  0
    1.4289   -1.6500    0.0000 C   0  0  0  0  0  0  0  0  0  0  0  0
    2.1434   -1.2375    0.0000 C   0  0  0  0  0  0  0  0  0  0  0  0
    1.4289   -2.4750    0.0000 C   0  0  0  0  0  0  0  0  0  0  0  0
  1  2  1  0
  3  2  1  1
  3  4  1  0
  4  5  1  0
  5  6  2  0
  6  7  1  0
  7  8  1  0
  8  9  1  0
  9 10  1  0
 10 11  2  0
 11 12  1  0
 12 13  2  0
 13 14  1  0
 14 15  2  0
 10 15  1  0
  7 16  2  0
 16 17  1  0
 17 18  2  0
 18 19  1  0
 19 20  1  0
 20 21  1  0
 20 22  1  0
 19 23  1  0
 16 23  1  0
 23 24  2  0
  5 24  1  0
  3 25  1  0
 25 26  1  0
 25 27  1  0
 27 28  1  0
 27 29  1  0
M  END
>  <pIC50>  (19) 
6.16

>  <chembl_id>  (19) 
CHEMBL1922121

>  <canonical_smiles>  (19) 
CC[C@@H](Nc1nc(NCc2cccnc2)c3ncn(C(C)C)c3n1)C(O)C(C)C

$$$$
CHEMBL1922122
     RDKit          2D

 30 32  0  0  1  0  0  0  0  0999 V2000
    3.3523    4.4104    0.0000 C   0  0  0  0  0  0  0  0  0  0  0  0
    3.3523    3.5854    0.0000 C   0  0  0  0  0  0  0  0  0  0  0  0
    4.0668    3.1729    0.0000 C   0  0  0  0  0  0  0  0  0  0  0  0
    4.0668    2.3479    0.0000 N   0  0  0  0  0  0  0  0  0  0  0  0
    3.3523    1.9354    0.0000 C   0  0  0  0  0  0  0  0  0  0  0  0
    3.3523    1.1104    0.0000 N   0  0  0  0  0  0  0  0  0  0  0  0
    2.6378    0.6979    0.0000 C   0  0  0  0  0  0  0  0  0  0  0  0
    2.6378   -0.1271    0.0000 N   0  0  0  0  0  0  0  0  0  0  0  0
    1.9233   -0.5396    0.0000 C   0  0  0  0  0  0  0  0  0  0  0  0
    1.9233   -1.3646    0.0000 C   0  0  0  0  0  0  0  0  0  0  0  0
    2.6378   -1.7771    0.0000 C   0  0  0  0  0  0  0  0  0  0  0  0
    2.6378   -2.6021    0.0000 C   0  0  0  0  0  0  0  0  0  0  0  0
    1.9233   -3.0146    0.0000 C   0  0  0  0  0  0  0  0  0  0  0  0
    1.2089   -2.6021    0.0000 N   0  0  0  0  0  0  0  0  0  0  0  0
    1.2089   -1.7771    0.0000 C   0  0  0  0  0  0  0  0  0  0  0  0
    1.9233    1.1104    0.0000 C   0  0  0  0  0  0  0  0  0  0  0  0
    1.1387    0.8555    0.0000 N   0  0  0  0  0  0  0  0  0  0  0  0
    0.6538    1.5229    0.0000 C   0  0  0  0  0  0  0  0  0  0  0  0
    1.1387    2.1904    0.0000 N   0  0  0  0  0  0  0  0  0  0  0  0
    0.8838    2.9750    0.0000 C   0  0  0  0  0  0  0  0  0  0  0  0
    1.4358    3.5881    0.0000 C   0  0  0  0  0  0  0  0  0  0  0  0
    0.0768    3.1465    0.0000 C   0  0  0  0  0  0  0  0  0  0  0  0
    1.9233    1.9354    0.0000 C   0  0  0  0  0  0  0  0  0  0  0  0
    2.6378    2.3479    0.0000 N   0  0  0  0  0  0  0  0  0  0  0  0
    4.7812    3.5854    0.0000 C   0  0  0  0  0  0  0  0  0  0  0  0
    5.4957    3.1729    0.0000 O   0  0  0  0  0  0  0  0  0  0  0  0
    4.7812    4.4104    0.0000 C   0  0  0  0  0  0  0  0  0  0  0  0
    4.7812    5.2354    0.0000 C   0  0  0  0  0  0  0  0  0  0  0  0
    5.6062    4.4104    0.0000 C   0  0  0  0  0  0  0  0  0  0  0  0
    3.9562    4.4104    0.0000 C   0  0  0  0  0  0  0  0  0  0  0  0
  1  2  1  0
  3  2  1  6
  3  4  1  0
  4  5  1  0
  5  6  2  0
  6  7  1  0
  7  8  1  0
  8  9  1  0
  9 10  1  0
 10 11  2  0
 11 12  1  0
 12 13  2  0
 13 14  1  0
 14 15  2  0
 10 15  1  0
  7 16  2  0
 16 17  1  0
 17 18  2  0
 18 19  1  0
 19 20  1  0
 20 21  1  0
 20 22  1  0
 19 23  1  0
 16 23  1  0
 23 24  2  0
  5 24  1  0
  3 25  1  0
 25 26  1  0
 25 27  1  0
 27 28  1  0
 27 29  1  0
 27 30  1  0
M  END
>  <pIC50>  (20) 
6.00

>  <chembl_id>  (20) 
CHEMBL1922122

>  <canonical_smiles>  (20) 
CC[C@@H](Nc1nc(NCc2cccnc2)c3ncn(C(C)C)c3n1)C(O)C(C)(C)C

$$$$
CHEMBL1922123
     RDKit          2D

 28 30  0  0  1  0  0  0  0  0999 V2000
    4.7812    4.4104    0.0000 C   0  0  0  0  0  0  0  0  0  0  0  0
    4.7812    3.5854    0.0000 C   0  0  0  0  0  0  0  0  0  0  0  0
    4.0668    3.1729    0.0000 C   0  0  0  0  0  0  0  0  0  0  0  0
    4.0668    2.3479    0.0000 N   0  0  0  0  0  0  0  0  0  0  0  0
    3.3523    1.9354    0.0000 C   0  0  0  0  0  0  0  0  0  0  0  0
    3.3523    1.1104    0.0000 N   0  0  0  0  0  0  0  0  0  0  0  0
    2.6378    0.6979    0.0000 C   0  0  0  0  0  0  0  0  0  0  0  0
    2.6378   -0.1271    0.0000 N   0  0  0  0  0  0  0  0  0  0  0  0
    3.3523   -0.5396    0.0000 C   0  0  0  0  0  0  0  0  0  0  0  0
    3.3523   -1.3646    0.0000 C   0  0  0  0  0  0  0  0  0  0  0  0
    4.0668   -1.7771    0.0000 C   0  0  0  0  0  0  0  0  0  0  0  0
    4.0668   -2.6021    0.0000 C   0  0  0  0  0  0  0  0  0  0  0  0
    3.3523   -3.0146    0.0000 C   0  0  0  0  0  0  0  0  0  0  0  0
    2.6378   -2.6021    0.0000 N   0  0  0  0  0  0  0  0  0  0  0  0
    2.6378   -1.7771    0.0000 C   0  0  0  0  0  0  0  0  0  0  0  0
    1.9233    1.1104    0.0000 C   0  0  0  0  0  0  0  0  0  0  0  0
    1.1387    0.8555    0.0000 N   0  0  0  0  0  0  0  0  0  0  0  0
    0.6538    1.5229    0.0000 C   0  0  0  0  0  0  0  0  0  0  0  0
    1.1387    2.1904    0.0000 N   0  0  0  0  0  0  0  0  0  0  0  0
    0.8838    2.9750    0.0000 C   0  0  0  0  0  0  0  0  0  0  0  0
    1.4358    3.5881    0.0000 C   0  0  0  0  0  0  0  0  0  0  0  0
    0.0768    3.1465    0.0000 C   0  0  0  0  0  0  0  0  0  0  0  0
    1.9233    1.9354    0.0000 C   0  0  0  0  0  0  0  0  0  0  0  0
    2.6378    2.3479    0.0000 N   0  0  0  0  0  0  0  0  0  0  0  0
    3.3523    3.5854    0.0000 C   0  0  0  0  0  0  0  0  0  0  0  0
    2.6378    3.9979    0.0000 C   0  0  0  0  0  0  0  0  0  0  0  0
    2.9398    2.8710    0.0000 C   0  0  0  0  0  0  0  0  0  0  0  0
    3.7648    4.2999    0.0000 O   0  0  0  0  0  0  0  0  0  0  0  0
  1  2  1  0
  3  2  1  1
  3  4  1  0
  4  5  1  0
  5  6  2  0
  6  7  1  0
  7  8  1  0
  8  9  1  0
  9 10  1  0
 10 11  2  0
 11 12  1  0
 12 13  2  0
 13 14  1  0
 14 15  2  0
 10 15  1  0
  7 16  2  0
 16 17  1  0
 17 18  2  0
 18 19  1  0
 19 20  1  0
 20 21  1  0
 20 22  1  0
 19 23  1  0
 16 23  1  0
 23 24  2  0
  5 24  1  0
  3 25  1  0
 25 26  1  0
 25 27  1  0
 25 28  1  0
M  END
>  <pIC50>  (21) 
6.70

>  <chembl_id>  (21) 
CHEMBL1922123

>  <canonical_smiles>  (21) 
CC[C@@H](Nc1nc(NCc2cccnc2)c3ncn(C(C)C)c3n1)C(C)(C)O

$$$$
CHEMBL1922209
     RDKit          2D

 28 30  0  0  1  0  0  0  0  0999 V2000
    0.0000   -2.4750    0.0000 C   0  0  0  0  0  0  0  0  0  0  0  0
    0.7145   -2.8875    0.0000 C   0  0  0  0  0  0  0  0  0  0  0  0
    1.4289   -2.4750    0.0000 C   0  0  0  0  0  0  0  0  0  0  0  0
    1.4289   -1.6500    0.0000 O   0  0  0  0  0  0  0  0  0  0  0  0
    2.1434   -2.8875    0.0000 C   0  0  0  0  0  0  0  0  0  0  0  0
    2.1434   -3.7125    0.0000 C   0  0  0  0  0  0  0  0  0  0  0  0
    2.8579   -4.1250    0.0000 C   0  0  0  0  0  0  0  0  0  0  0  0
    2.8579   -2.4750    0.0000 N   0  0  0  0  0  0  0  0  0  0  0  0
    3.5724   -2.8875    0.0000 C   0  0  0  0  0  0  0  0  0  0  0  0
    4.2868   -2.4750    0.0000 N   0  0  0  0  0  0  0  0  0  0  0  0
    5.0013   -2.8875    0.0000 C   0  0  0  0  0  0  0  0  0  0  0  0
    5.7158   -2.4750    0.0000 N   0  0  0  0  0  0  0  0  0  0  0  0
    5.7158   -1.6500    0.0000 C   0  0  0  0  0  0  0  0  0  0  0  0
    6.4302   -1.2375    0.0000 C   0  0  0  0  0  0  0  0  0  0  0  0
    6.4302   -0.4125    0.0000 C   0  0  0  0  0  0  0  0  0  0  0  0
    7.1447    0.0000    0.0000 C   0  0  0  0  0  0  0  0  0  0  0  0
    7.8592   -0.4125    0.0000 C   0  0  0  0  0  0  0  0  0  0  0  0
    7.8592   -1.2375    0.0000 N   0  0  0  0  0  0  0  0  0  0  0  0
    7.1447   -1.6500    0.0000 C   0  0  0  0  0  0  0  0  0  0  0  0
    5.0013   -3.7125    0.0000 C   0  0  0  0  0  0  0  0  0  0  0  0
    5.6144   -4.2645    0.0000 N   0  0  0  0  0  0  0  0  0  0  0  0
    5.2788   -5.0182    0.0000 C   0  0  0  0  0  0  0  0  0  0  0  0
    4.4584   -4.9320    0.0000 N   0  0  0  0  0  0  0  0  0  0  0  0
    3.9063   -5.5451    0.0000 C   0  0  0  0  0  0  0  0  0  0  0  0
    3.0993   -5.3735    0.0000 C   0  0  0  0  0  0  0  0  0  0  0  0
    4.1613   -6.3297    0.0000 C   0  0  0  0  0  0  0  0  0  0  0  0
    4.2868   -4.1250    0.0000 C   0  0  0  0  0  0  0  0  0  0  0  0
    3.5724   -3.7125    0.0000 N   0  0  0  0  0  0  0  0  0  0  0  0
  1  2  1  0
  2  3  1  0
  3  4  1  0
  5  3  1  0
  5  6  1  1
  6  7  1  0
  5  8  1  0
  8  9  1  0
  9 10  2  0
 10 11  1  0
 11 12  1  0
 12 13  1  0
 13 14  1  0
 14 15  2  0
 15 16  1  0
 16 17  2  0
 17 18  1  0
 18 19  2  0
 14 19  1  0
 11 20  2  0
 20 21  1  0
 21 22  2  0
 22 23  1  0
 23 24  1  0
 24 25  1  0
 24 26  1  0
 23 27  1  0
 20 27  1  0
 27 28  2  0
  9 28  1  0
M  END
>  <pIC50>  (22) 
6.96

>  <chembl_id>  (22) 
CHEMBL1922209

>  <canonical_smiles>  (22) 
CCC(O)[C@H](CC)Nc1nc(NCc2cccnc2)c3ncn(C(C)C)c3n1

$$$$
CHEMBL1922210
     RDKit          2D

 29 31  0  0  1  0  0  0  0  0999 V2000
    0.7145   -2.8875    0.0000 C   0  0  0  0  0  0  0  0  0  0  0  0
    0.0000   -2.4750    0.0000 C   0  0  0  0  0  0  0  0  0  0  0  0
    0.0000   -1.6500    0.0000 C   0  0  0  0  0  0  0  0  0  0  0  0
   -0.7145   -1.2375    0.0000 N   0  0  0  0  0  0  0  0  0  0  0  0
   -1.4289   -1.6500    0.0000 C   0  0  0  0  0  0  0  0  0  0  0  0
   -1.4289   -2.4750    0.0000 N   0  0  0  0  0  0  0  0  0  0  0  0
   -2.1434   -2.8875    0.0000 C   0  0  0  0  0  0  0  0  0  0  0  0
   -2.1434   -3.7125    0.0000 N   0  0  0  0  0  0  0  0  0  0  0  0
   -2.8579   -4.1250    0.0000 C   0  0  0  0  0  0  0  0  0  0  0  0
   -2.8579   -4.9500    0.0000 C   0  0  0  0  0  0  0  0  0  0  0  0
   -2.1434   -5.3625    0.0000 C   0  0  0  0  0  0  0  0  0  0  0  0
   -2.1434   -6.1875    0.0000 C   0  0  0  0  0  0  0  0  0  0  0  0
   -2.8579   -6.6000    0.0000 C   0  0  0  0  0  0  0  0  0  0  0  0
   -3.5724   -6.1875    0.0000 N   0  0  0  0  0  0  0  0  0  0  0  0
   -3.5724   -5.3625    0.0000 C   0  0  0  0  0  0  0  0  0  0  0  0
   -2.8579   -2.4750    0.0000 C   0  0  0  0  0  0  0  0  0  0  0  0
   -3.6425   -2.7299    0.0000 N   0  0  0  0  0  0  0  0  0  0  0  0
   -4.1274   -2.0625    0.0000 C   0  0  0  0  0  0  0  0  0  0  0  0
   -3.6425   -1.3951    0.0000 N   0  0  0  0  0  0  0  0  0  0  0  0
   -3.8974   -0.6104    0.0000 C   0  0  0  0  0  0  0  0  0  0  0  0
   -3.3454    0.0027    0.0000 C   0  0  0  0  0  0  0  0  0  0  0  0
   -4.7044   -0.4389    0.0000 C   0  0  0  0  0  0  0  0  0  0  0  0
   -2.8579   -1.6500    0.0000 C   0  0  0  0  0  0  0  0  0  0  0  0
   -2.1434   -1.2375    0.0000 N   0  0  0  0  0  0  0  0  0  0  0  0
    0.7145   -1.2375    0.0000 C   0  0  0  0  0  0  0  0  0  0  0  0
    0.7145   -0.4125    0.0000 O   0  0  0  0  0  0  0  0  0  0  0  0
    1.4289   -1.6500    0.0000 C   0  0  0  0  0  0  0  0  0  0  0  0
    2.1434   -1.2375    0.0000 C   0  0  0  0  0  0  0  0  0  0  0  0
    1.4289   -2.4750    0.0000 C   0  0  0  0  0  0  0  0  0  0  0  0
  1  2  1  0
  3  2  1  6
  3  4  1  0
  4  5  1  0
  5  6  2  0
  6  7  1  0
  7  8  1  0
  8  9  1  0
  9 10  1  0
 10 11  2  0
 11 12  1  0
 12 13  2  0
 13 14  1  0
 14 15  2  0
 10 15  1  0
  7 16  2  0
 16 17  1  0
 17 18  2  0
 18 19  1  0
 19 20  1  0
 20 21  1  0
 20 22  1  0
 19 23  1  0
 16 23  1  0
 23 24  2  0
  5 24  1  0
  3 25  1  0
 25 26  1  0
 25 27  1  0
 27 28  1  0
 27 29  1  0
M  END
>  <pIC50>  (23) 
5.96

>  <chembl_id>  (23) 
CHEMBL1922210

>  <canonical_smiles>  (23) 
CC[C@H](Nc1nc(NCc2cccnc2)c3ncn(C(C)C)c3n1)C(O)C(C)C

$$$$
CHEMBL1922211
     RDKit          2D

 30 32  0  0  1  0  0  0  0  0999 V2000
    3.3523    4.4104    0.0000 C   0  0  0  0  0  0  0  0  0  0  0  0
    3.3523    3.5854    0.0000 C   0  0  0  0  0  0  0  0  0  0  0  0
    4.0668    3.1729    0.0000 C   0  0  0  0  0  0  0  0  0  0  0  0
    4.0668    2.3479    0.0000 N   0  0  0  0  0  0  0  0  0  0  0  0
    3.3523    1.9354    0.0000 C   0  0  0  0  0  0  0  0  0  0  0  0
    3.3523    1.1104    0.0000 N   0  0  0  0  0  0  0  0  0  0  0  0
    2.6378    0.6979    0.0000 C   0  0  0  0  0  0  0  0  0  0  0  0
    2.6378   -0.1271    0.0000 N   0  0  0  0  0  0  0  0  0  0  0  0
    1.9233   -0.5396    0.0000 C   0  0  0  0  0  0  0  0  0  0  0  0
    1.9233   -1.3646    0.0000 C   0  0  0  0  0  0  0  0  0  0  0  0
    2.6378   -1.7771    0.0000 C   0  0  0  0  0  0  0  0  0  0  0  0
    2.6378   -2.6021    0.0000 C   0  0  0  0  0  0  0  0  0  0  0  0
    1.9233   -3.0146    0.0000 C   0  0  0  0  0  0  0  0  0  0  0  0
    1.2089   -2.6021    0.0000 N   0  0  0  0  0  0  0  0  0  0  0  0
    1.2089   -1.7771    0.0000 C   0  0  0  0  0  0  0  0  0  0  0  0
    1.9233    1.1104    0.0000 C   0  0  0  0  0  0  0  0  0  0  0  0
    1.1387    0.8555    0.0000 N   0  0  0  0  0  0  0  0  0  0  0  0
    0.6538    1.5229    0.0000 C   0  0  0  0  0  0  0  0  0  0  0  0
    1.1387    2.1904    0.0000 N   0  0  0  0  0  0  0  0  0  0  0  0
    0.8838    2.9750    0.0000 C   0  0  0  0  0  0  0  0  0  0  0  0
    1.4358    3.5881    0.0000 C   0  0  0  0  0  0  0  0  0  0  0  0
    0.0768    3.1465    0.0000 C   0  0  0  0  0  0  0  0  0  0  0  0
    1.9233    1.9354    0.0000 C   0  0  0  0  0  0  0  0  0  0  0  0
    2.6378    2.3479    0.0000 N   0  0  0  0  0  0  0  0  0  0  0  0
    4.7812    3.5854    0.0000 C   0  0  0  0  0  0  0  0  0  0  0  0
    5.4957    3.1729    0.0000 O   0  0  0  0  0  0  0  0  0  0  0  0
    4.7812    4.4104    0.0000 C   0  0  0  0  0  0  0  0  0  0  0  0
    4.7812    5.2354    0.0000 C   0  0  0  0  0  0  0  0  0  0  0  0
    5.6062    4.4104    0.0000 C   0  0  0  0  0  0  0  0  0  0  0  0
    3.9562    4.4104    0.0000 C   0  0  0  0  0  0  0  0  0  0  0  0
  1  2  1  0
  3  2  1  1
  3  4  1  0
  4  5  1  0
  5  6  2  0
  6  7  1  0
  7  8  1  0
  8  9  1  0
  9 10  1  0
 10 11  2  0
 11 12  1  0
 12 13  2  0
 13 14  1  0
 14 15  2  0
 10 15  1  0
  7 16  2  0
 16 17  1  0
 17 18  2  0
 18 19  1  0
 19 20  1  0
 20 21  1  0
 20 22  1  0
 19 23  1  0
 16 23  1  0
 23 24  2  0
  5 24  1  0
  3 25  1  0
 25 26  1  0
 25 27  1  0
 27 28  1  0
 27 29  1  0
 27 30  1  0
M  END
>  <pIC50>  (24) 
6.41

>  <chembl_id>  (24) 
CHEMBL1922211

>  <canonical_smiles>  (24) 
CC[C@H](Nc1nc(NCc2cccnc2)c3ncn(C(C)C)c3n1)C(O)C(C)(C)C

$$$$
CHEMBL1922212
     RDKit          2D

 28 30  0  0  1  0  0  0  0  0999 V2000
    4.7812    4.4104    0.0000 C   0  0  0  0  0  0  0  0  0  0  0  0
    4.7812    3.5854    0.0000 C   0  0  0  0  0  0  0  0  0  0  0  0
    4.0668    3.1729    0.0000 C   0  0  0  0  0  0  0  0  0  0  0  0
    4.0668    2.3479    0.0000 N   0  0  0  0  0  0  0  0  0  0  0  0
    3.3523    1.9354    0.0000 C   0  0  0  0  0  0  0  0  0  0  0  0
    3.3523    1.1104    0.0000 N   0  0  0  0  0  0  0  0  0  0  0  0
    2.6378    0.6979    0.0000 C   0  0  0  0  0  0  0  0  0  0  0  0
    2.6378   -0.1271    0.0000 N   0  0  0  0  0  0  0  0  0  0  0  0
    3.3523   -0.5396    0.0000 C   0  0  0  0  0  0  0  0  0  0  0  0
    3.3523   -1.3646    0.0000 C   0  0  0  0  0  0  0  0  0  0  0  0
    4.0668   -1.7771    0.0000 C   0  0  0  0  0  0  0  0  0  0  0  0
    4.0668   -2.6021    0.0000 C   0  0  0  0  0  0  0  0  0  0  0  0
    3.3523   -3.0146    0.0000 C   0  0  0  0  0  0  0  0  0  0  0  0
    2.6378   -2.6021    0.0000 N   0  0  0  0  0  0  0  0  0  0  0  0
    2.6378   -1.7771    0.0000 C   0  0  0  0  0  0  0  0  0  0  0  0
    1.9233    1.1104    0.0000 C   0  0  0  0  0  0  0  0  0  0  0  0
    1.1387    0.8555    0.0000 N   0  0  0  0  0  0  0  0  0  0  0  0
    0.6538    1.5229    0.0000 C   0  0  0  0  0  0  0  0  0  0  0  0
    1.1387    2.1904    0.0000 N   0  0  0  0  0  0  0  0  0  0  0  0
    0.8838    2.9750    0.0000 C   0  0  0  0  0  0  0  0  0  0  0  0
    1.4358    3.5881    0.0000 C   0  0  0  0  0  0  0  0  0  0  0  0
    0.0768    3.1465    0.0000 C   0  0  0  0  0  0  0  0  0  0  0  0
    1.9233    1.9354    0.0000 C   0  0  0  0  0  0  0  0  0  0  0  0
    2.6378    2.3479    0.0000 N   0  0  0  0  0  0  0  0  0  0  0  0
    3.3523    3.5854    0.0000 C   0  0  0  0  0  0  0  0  0  0  0  0
    2.6378    3.9979    0.0000 C   0  0  0  0  0  0  0  0  0  0  0  0
    2.9398    2.8710    0.0000 C   0  0  0  0  0  0  0  0  0  0  0  0
    3.7648    4.2999    0.0000 O   0  0  0  0  0  0  0  0  0  0  0  0
  1  2  1  0
  3  2  1  6
  3  4  1  0
  4  5  1  0
  5  6  2  0
  6  7  1  0
  7  8  1  0
  8  9  1  0
  9 10  1  0
 10 11  2  0
 11 12  1  0
 12 13  2  0
 13 14  1  0
 14 15  2  0
 10 15  1  0
  7 16  2  0
 16 17  1  0
 17 18  2  0
 18 19  1  0
 19 20  1  0
 20 21  1  0
 20 22  1  0
 19 23  1  0
 16 23  1  0
 23 24  2  0
  5 24  1  0
  3 25  1  0
 25 26  1  0
 25 27  1  0
 25 28  1  0
M  END
>  <pIC50>  (25) 
7.15

>  <chembl_id>  (25) 
CHEMBL1922212

>  <canonical_smiles>  (25) 
CC[C@H](Nc1nc(NCc2cccnc2)c3ncn(C(C)C)c3n1)C(C)(C)O

$$$$
CHEMBL1922218
     RDKit          2D

 27 29  0  0  1  0  0  0  0  0999 V2000
    4.7812    4.4104    0.0000 C   0  0  0  0  0  0  0  0  0  0  0  0
    4.7812    3.5854    0.0000 C   0  0  0  0  0  0  0  0  0  0  0  0
    4.0668    3.1729    0.0000 C   0  0  0  0  0  0  0  0  0  0  0  0
    4.0668    2.3479    0.0000 N   0  0  0  0  0  0  0  0  0  0  0  0
    3.3523    1.9354    0.0000 C   0  0  0  0  0  0  0  0  0  0  0  0
    3.3523    1.1104    0.0000 N   0  0  0  0  0  0  0  0  0  0  0  0
    2.6378    0.6979    0.0000 C   0  0  0  0  0  0  0  0  0  0  0  0
    2.6378   -0.1271    0.0000 N   0  0  0  0  0  0  0  0  0  0  0  0
    3.3523   -0.5396    0.0000 C   0  0  0  0  0  0  0  0  0  0  0  0
    3.3523   -1.3646    0.0000 C   0  0  0  0  0  0  0  0  0  0  0  0
    4.0668   -1.7771    0.0000 C   0  0  0  0  0  0  0  0  0  0  0  0
    4.0668   -2.6021    0.0000 C   0  0  0  0  0  0  0  0  0  0  0  0
    3.3523   -3.0146    0.0000 C   0  0  0  0  0  0  0  0  0  0  0  0
    2.6378   -2.6021    0.0000 N   0  0  0  0  0  0  0  0  0  0  0  0
    2.6378   -1.7771    0.0000 C   0  0  0  0  0  0  0  0  0  0  0  0
    1.9233    1.1104    0.0000 C   0  0  0  0  0  0  0  0  0  0  0  0
    1.1387    0.8555    0.0000 N   0  0  0  0  0  0  0  0  0  0  0  0
    0.6538    1.5229    0.0000 C   0  0  0  0  0  0  0  0  0  0  0  0
    1.1387    2.1904    0.0000 N   0  0  0  0  0  0  0  0  0  0  0  0
    0.8838    2.9750    0.0000 C   0  0  0  0  0  0  0  0  0  0  0  0
    1.4358    3.5881    0.0000 C   0  0  0  0  0  0  0  0  0  0  0  0
    0.0768    3.1465    0.0000 C   0  0  0  0  0  0  0  0  0  0  0  0
    1.9233    1.9354    0.0000 C   0  0  0  0  0  0  0  0  0  0  0  0
    2.6378    2.3479    0.0000 N   0  0  0  0  0  0  0  0  0  0  0  0
    3.3523    3.5854    0.0000 C   0  0  0  0  0  0  0  0  0  0  0  0
    2.6378    3.1729    0.0000 C   0  0  0  0  0  0  0  0  0  0  0  0
    3.3523    4.4104    0.0000 O   0  0  0  0  0  0  0  0  0  0  0  0
  1  2  1  0
  3  2  1  1
  3  4  1  0
  4  5  1  0
  5  6  2  0
  6  7  1  0
  7  8  1  0
  8  9  1  0
  9 10  1  0
 10 11  2  0
 11 12  1  0
 12 13  2  0
 13 14  1  0
 14 15  2  0
 10 15  1  0
  7 16  2  0
 16 17  1  0
 17 18  2  0
 18 19  1  0
 19 20  1  0
 20 21  1  0
 20 22  1  0
 19 23  1  0
 16 23  1  0
 23 24  2  0
  5 24  1  0
  3 25  1  0
 25 26  1  6
 25 27  1  0
M  END
>  <pIC50>  (26) 
7.05

>  <chembl_id>  (26) 
CHEMBL1922218

>  <canonical_smiles>  (26) 
CC[C@@H](Nc1nc(NCc2cccnc2)c3ncn(C(C)C)c3n1)[C@H](C)O

$$$$
CHEMBL1922219
     RDKit          2D

 27 29  0  0  1  0  0  0  0  0999 V2000
    4.7812    4.4104    0.0000 C   0  0  0  0  0  0  0  0  0  0  0  0
    4.7812    3.5854    0.0000 C   0  0  0  0  0  0  0  0  0  0  0  0
    4.0668    3.1729    0.0000 C   0  0  0  0  0  0  0  0  0  0  0  0
    4.0668    2.3479    0.0000 N   0  0  0  0  0  0  0  0  0  0  0  0
    3.3523    1.9354    0.0000 C   0  0  0  0  0  0  0  0  0  0  0  0
    3.3523    1.1104    0.0000 N   0  0  0  0  0  0  0  0  0  0  0  0
    2.6378    0.6979    0.0000 C   0  0  0  0  0  0  0  0  0  0  0  0
    2.6378   -0.1271    0.0000 N   0  0  0  0  0  0  0  0  0  0  0  0
    3.3523   -0.5396    0.0000 C   0  0  0  0  0  0  0  0  0  0  0  0
    3.3523   -1.3646    0.0000 C   0  0  0  0  0  0  0  0  0  0  0  0
    4.0668   -1.7771    0.0000 C   0  0  0  0  0  0  0  0  0  0  0  0
    4.0668   -2.6021    0.0000 C   0  0  0  0  0  0  0  0  0  0  0  0
    3.3523   -3.0146    0.0000 C   0  0  0  0  0  0  0  0  0  0  0  0
    2.6378   -2.6021    0.0000 N   0  0  0  0  0  0  0  0  0  0  0  0
    2.6378   -1.7771    0.0000 C   0  0  0  0  0  0  0  0  0  0  0  0
    1.9233    1.1104    0.0000 C   0  0  0  0  0  0  0  0  0  0  0  0
    1.1387    0.8555    0.0000 N   0  0  0  0  0  0  0  0  0  0  0  0
    0.6538    1.5229    0.0000 C   0  0  0  0  0  0  0  0  0  0  0  0
    1.1387    2.1904    0.0000 N   0  0  0  0  0  0  0  0  0  0  0  0
    0.8838    2.9750    0.0000 C   0  0  0  0  0  0  0  0  0  0  0  0
    1.4358    3.5881    0.0000 C   0  0  0  0  0  0  0  0  0  0  0  0
    0.0768    3.1465    0.0000 C   0  0  0  0  0  0  0  0  0  0  0  0
    1.9233    1.9354    0.0000 C   0  0  0  0  0  0  0  0  0  0  0  0
    2.6378    2.3479    0.0000 N   0  0  0  0  0  0  0  0  0  0  0  0
    3.3523    3.5854    0.0000 C   0  0  0  0  0  0  0  0  0  0  0  0
    2.6378    3.1729    0.0000 C   0  0  0  0  0  0  0  0  0  0  0  0
    3.3523    4.4104    0.0000 O   0  0  0  0  0  0  0  0  0  0  0  0
  1  2  1  0
  3  2  1  6
  3  4  1  0
  4  5  1  0
  5  6  2  0
  6  7  1  0
  7  8  1  0
  8  9  1  0
  9 10  1  0
 10 11  2  0
 11 12  1  0
 12 13  2  0
 13 14  1  0
 14 15  2  0
 10 15  1  0
  7 16  2  0
 16 17  1  0
 17 18  2  0
 18 19  1  0
 19 20  1  0
 20 21  1  0
 20 22  1  0
 19 23  1  0
 16 23  1  0
 23 24  2  0
  5 24  1  0
  3 25  1  0
 25 26  1  1
 25 27  1  0
M  END
>  <pIC50>  (27) 
7.52

>  <chembl_id>  (27) 
CHEMBL1922219

>  <canonical_smiles>  (27) 
CC[C@H](Nc1nc(NCc2cccnc2)c3ncn(C(C)C)c3n1)[C@@H](C)O

$$$$
CHEMBL193456
     RDKit          2D

 30 32  0  0  0  0  0  0  0  0999 V2000
    2.8579   -1.6500    0.0000 C   0  0  0  0  0  0  0  0  0  0  0  0
    3.5724   -2.0625    0.0000 N   0  0  0  0  0  0  0  0  0  0  0  0
    4.2868   -1.6500    0.0000 C   0  0  0  0  0  0  0  0  0  0  0  0
    3.5724   -2.8875    0.0000 S   0  0  0  0  0  0  0  0  0  0  0  0
    2.7474   -2.8875    0.0000 O   0  0  0  0  0  0  0  0  0  0  0  0
    4.3974   -2.8875    0.0000 O   0  0  0  0  0  0  0  0  0  0  0  0
    3.5724   -3.7125    0.0000 C   0  0  0  0  0  0  0  0  0  0  0  0
    4.2868   -4.1250    0.0000 C   0  0  0  0  0  0  0  0  0  0  0  0
    4.2868   -4.9500    0.0000 C   0  0  0  0  0  0  0  0  0  0  0  0
    3.5724   -5.3625    0.0000 C   0  0  0  0  0  0  0  0  0  0  0  0
    3.5724   -6.1875    0.0000 N   0  0  0  0  0  0  0  0  0  0  0  0
    4.2868   -6.6000    0.0000 C   0  0  0  0  0  0  0  0  0  0  0  0
    4.2868   -7.4250    0.0000 C   0  0  0  0  0  0  0  0  0  0  0  0
    5.0013   -7.8375    0.0000 C   0  0  0  0  0  0  0  0  0  0  0  0
    5.7158   -7.4250    0.0000 C   0  0  0  0  0  0  0  0  0  0  0  0
    6.4302   -7.8375    0.0000 C   0  0  0  0  0  0  0  0  0  0  0  0
    7.1447   -7.4250    0.0000 O   0  0  0  0  0  0  0  0  0  0  0  0
    6.4302   -8.6625    0.0000 C   0  0  0  0  0  0  0  0  0  0  0  0
    7.1447   -9.0750    0.0000 C   0  0  0  0  0  0  0  0  0  0  0  0
    7.8592   -8.6625    0.0000 F   0  0  0  0  0  0  0  0  0  0  0  0
    7.1447   -9.9000    0.0000 C   0  0  0  0  0  0  0  0  0  0  0  0
    6.4302  -10.3125    0.0000 C   0  0  0  0  0  0  0  0  0  0  0  0
    5.7158   -9.9000    0.0000 C   0  0  0  0  0  0  0  0  0  0  0  0
    5.7158   -9.0750    0.0000 C   0  0  0  0  0  0  0  0  0  0  0  0
    5.0013   -8.6625    0.0000 F   0  0  0  0  0  0  0  0  0  0  0  0
    5.7158   -6.6000    0.0000 C   0  0  0  0  0  0  0  0  0  0  0  0
    6.4302   -6.1875    0.0000 N   0  0  0  0  0  0  0  0  0  0  0  0
    5.0013   -6.1875    0.0000 N   0  0  0  0  0  0  0  0  0  0  0  0
    2.8579   -4.9500    0.0000 C   0  0  0  0  0  0  0  0  0  0  0  0
    2.8579   -4.1250    0.0000 C   0  0  0  0  0  0  0  0  0  0  0  0
  1  2  1  0
  2  3  1  0
  2  4  1  0
  4  5  2  0
  4  6  2  0
  4  7  1  0
  7  8  2  0
  8  9  1  0
  9 10  2  0
 10 11  1  0
 11 12  1  0
 12 13  2  0
 13 14  1  0
 14 15  2  0
 15 16  1  0
 16 17  2  0
 16 18  1  0
 18 19  2  0
 19 20  1  0
 19 21  1  0
 21 22  2  0
 22 23  1  0
 23 24  2  0
 18 24  1  0
 24 25  1  0
 15 26  1  0
 26 27  1  0
 26 28  2  0
 12 28  1  0
 10 29  1  0
 29 30  2  0
  7 30  1  0
M  END
>  <pIC50>  (28) 
6.30

>  <chembl_id>  (28) 
CHEMBL193456

>  <canonical_smiles>  (28) 
CN(C)S(=O)(=O)c1ccc(Nc2ccc(C(=O)c3c(F)cccc3F)c(N)n2)cc1

$$$$
CHEMBL193643
     RDKit          2D

 28 30  0  0  0  0  0  0  0  0999 V2000
    2.1434   -0.4125    0.0000 N   0  0  0  0  0  0  0  0  0  0  0  0
    2.1434   -1.2375    0.0000 C   0  0  0  0  0  0  0  0  0  0  0  0
    1.4289   -1.6500    0.0000 N   0  0  0  0  0  0  0  0  0  0  0  0
    1.4289   -2.4750    0.0000 C   0  0  0  0  0  0  0  0  0  0  0  0
    0.7145   -2.8875    0.0000 N   0  0  0  0  0  0  0  0  0  0  0  0
    0.7145   -3.7125    0.0000 C   0  0  0  0  0  0  0  0  0  0  0  0
    1.4289   -4.1250    0.0000 C   0  0  0  0  0  0  0  0  0  0  0  0
    1.4289   -4.9500    0.0000 C   0  0  0  0  0  0  0  0  0  0  0  0
    0.7145   -5.3625    0.0000 C   0  0  0  0  0  0  0  0  0  0  0  0
    0.0000   -4.9500    0.0000 C   0  0  0  0  0  0  0  0  0  0  0  0
    0.0000   -4.1250    0.0000 C   0  0  0  0  0  0  0  0  0  0  0  0
    0.7145   -6.1875    0.0000 S   0  0  0  0  0  0  0  0  0  0  0  0
    0.7145   -7.0125    0.0000 O   0  0  0  0  0  0  0  0  0  0  0  0
    1.5395   -6.1875    0.0000 O   0  0  0  0  0  0  0  0  0  0  0  0
   -0.1105   -6.1875    0.0000 N   0  0  0  0  0  0  0  0  0  0  0  0
    2.1434   -2.8875    0.0000 C   0  0  0  0  0  0  0  0  0  0  0  0
    2.8579   -2.4750    0.0000 C   0  0  0  0  0  0  0  0  0  0  0  0
    2.8579   -1.6500    0.0000 C   0  0  0  0  0  0  0  0  0  0  0  0
    3.5724   -1.2375    0.0000 C   0  0  0  0  0  0  0  0  0  0  0  0
    3.5724   -0.4125    0.0000 O   0  0  0  0  0  0  0  0  0  0  0  0
    4.2868   -1.6500    0.0000 C   0  0  0  0  0  0  0  0  0  0  0  0
    5.0013   -1.2375    0.0000 C   0  0  0  0  0  0  0  0  0  0  0  0
    5.0013   -0.4125    0.0000 F   0  0  0  0  0  0  0  0  0  0  0  0
    5.7158   -1.6500    0.0000 C   0  0  0  0  0  0  0  0  0  0  0  0
    5.7158   -2.4750    0.0000 C   0  0  0  0  0  0  0  0  0  0  0  0
    5.0013   -2.8875    0.0000 C   0  0  0  0  0  0  0  0  0  0  0  0
    4.2868   -2.4750    0.0000 C   0  0  0  0  0  0  0  0  0  0  0  0
    3.5724   -2.8875    0.0000 F   0  0  0  0  0  0  0  0  0  0  0  0
  1  2  1  0
  2  3  2  0
  3  4  1  0
  4  5  1  0
  5  6  1  0
  6  7  2  0
  7  8  1  0
  8  9  2  0
  9 10  1  0
 10 11  2  0
  6 11  1  0
  9 12  1  0
 12 13  2  0
 12 14  2  0
 12 15  1  0
  4 16  2  0
 16 17  1  0
 17 18  2  0
  2 18  1  0
 18 19  1  0
 19 20  2  0
 19 21  1  0
 21 22  2  0
 22 23  1  0
 22 24  1  0
 24 25  2  0
 25 26  1  0
 26 27  2  0
 21 27  1  0
 27 28  1  0
M  END
>  <pIC50>  (29) 
6.74

>  <chembl_id>  (29) 
CHEMBL193643

>  <canonical_smiles>  (29) 
Nc1nc(Nc2ccc(cc2)S(=O)(=O)N)ccc1C(=O)c3c(F)cccc3F

$$$$
CHEMBL1944698
     RDKit          2D

 28 31  0  0  0  0  0  0  0  0999 V2000
    3.5724    0.1202    0.0000 C   0  0  0  0  0  0  0  0  0  0  0  0
    4.3825   -0.0357    0.0000 N   0  0  0  0  0  0  0  0  0  0  0  0
    4.9226    0.5880    0.0000 C   0  0  0  0  0  0  0  0  0  0  0  0
    5.7327    0.4321    0.0000 C   0  0  0  0  0  0  0  0  0  0  0  0
    6.2728    1.0557    0.0000 C   0  0  0  0  0  0  0  0  0  0  0  0
    7.0829    0.8998    0.0000 C   0  0  0  0  0  0  0  0  0  0  0  0
    7.3530    0.1202    0.0000 C   0  0  0  0  0  0  0  0  0  0  0  0
    6.8129   -0.5034    0.0000 O   0  0  0  0  0  0  0  0  0  0  0  0
    7.0829   -1.2829    0.0000 C   0  0  0  0  0  0  0  0  0  0  0  0
    7.8931   -1.4389    0.0000 C   0  0  0  0  0  0  0  0  0  0  0  0
    8.1631   -2.2184    0.0000 C   0  0  0  0  0  0  0  0  0  0  0  0
    7.6230   -2.8421    0.0000 C   0  0  0  0  0  0  0  0  0  0  0  0
    6.8129   -2.6861    0.0000 C   0  0  0  0  0  0  0  0  0  0  0  0
    6.5428   -1.9066    0.0000 C   0  0  0  0  0  0  0  0  0  0  0  0
    6.2728   -3.3098    0.0000 C   0  0  0  0  0  0  0  0  0  0  0  0
    6.5428   -4.0893    0.0000 C   0  0  0  0  0  0  0  0  0  0  0  0
    6.0028   -4.7130    0.0000 C   0  0  0  0  0  0  0  0  0  0  0  0
    5.1926   -4.5571    0.0000 N   0  0  0  0  0  0  0  0  0  0  0  0
    4.9226   -3.7775    0.0000 C   0  0  0  0  0  0  0  0  0  0  0  0
    4.1124   -3.6216    0.0000 N   0  0  0  0  0  0  0  0  0  0  0  0
    3.8424   -2.8421    0.0000 C   0  0  0  0  0  0  0  0  0  0  0  0
    3.0323   -2.6861    0.0000 C   0  0  0  0  0  0  0  0  0  0  0  0
    2.7622   -1.9066    0.0000 C   0  0  0  0  0  0  0  0  0  0  0  0
    3.3023   -1.2829    0.0000 C   0  0  0  0  0  0  0  0  0  0  0  0
    4.1124   -1.4389    0.0000 C   0  0  0  0  0  0  0  0  0  0  0  0
    4.6525   -0.8152    0.0000 C   0  0  0  0  0  0  0  0  0  0  0  0
    4.3825   -2.2184    0.0000 C   0  0  0  0  0  0  0  0  0  0  0  0
    5.4627   -3.1539    0.0000 N   0  0  0  0  0  0  0  0  0  0  0  0
  1  2  1  0
  2  3  1  0
  3  4  1  0
  4  5  2  0
  5  6  1  0
  6  7  1  0
  7  8  1  0
  8  9  1  0
  9 10  1  0
 10 11  2  0
 11 12  1  0
 12 13  2  0
 13 14  1  0
  9 14  2  0
 13 15  1  0
 15 16  1  0
 16 17  2  0
 17 18  1  0
 18 19  2  0
 19 20  1  0
 20 21  1  0
 21 22  1  0
 22 23  2  0
 23 24  1  0
 24 25  2  0
 25 26  1  0
  2 26  1  0
 25 27  1  0
 21 27  2  0
 19 28  1  0
 15 28  2  0
M  END
>  <pIC50>  (30) 
6.89

>  <chembl_id>  (30) 
CHEMBL1944698

>  <canonical_smiles>  (30) 
CN1C\C=C\CCOc2cccc(c2)c3ccnc(Nc4cccc(C1)c4)n3

$$$$
CHEMBL197077
     RDKit          2D

 29 32  0  0  0  0  0  0  0  0999 V2000
    3.4533   -4.6905    0.0000 N   0  0  0  0  0  0  0  0  0  0  0  0
    3.4533   -5.5155    0.0000 C   0  0  0  0  0  0  0  0  0  0  0  0
    2.7859   -6.0004    0.0000 N   0  0  0  0  0  0  0  0  0  0  0  0
    3.0408   -6.7850    0.0000 O   0  0  0  0  0  0  0  0  0  0  0  0
    3.8658   -6.7850    0.0000 N   0  0  0  0  0  0  0  0  0  0  0  0
    4.1208   -6.0004    0.0000 C   0  0  0  0  0  0  0  0  0  0  0  0
    4.9054   -5.7454    0.0000 N   0  0  0  0  0  0  0  0  0  0  0  0
    5.1603   -4.9608    0.0000 N   0  0  0  0  0  0  0  0  0  0  0  0
    5.9853   -4.9608    0.0000 N   0  0  0  0  0  0  0  0  0  0  0  0
    6.2403   -5.7454    0.0000 C   0  0  0  0  0  0  0  0  0  0  0  0
    5.5728   -6.2304    0.0000 C   0  0  0  0  0  0  0  0  0  0  0  0
    5.5728   -7.0554    0.0000 C   0  0  0  0  0  0  0  0  0  0  0  0
    4.8584   -7.4679    0.0000 N   0  0  0  0  0  0  0  0  0  0  0  0
    4.8584   -8.2929    0.0000 C   0  0  0  0  0  0  0  0  0  0  0  0
    4.1439   -8.7054    0.0000 C   0  0  0  0  0  0  0  0  0  0  0  0
    3.4294   -8.2929    0.0000 C   0  0  0  0  0  0  0  0  0  0  0  0
    3.4294   -7.4679    0.0000 C   0  0  0  0  0  0  0  0  0  0  0  0
    4.1439   -7.0554    0.0000 C   0  0  0  0  0  0  0  0  0  0  0  0
    7.0249   -6.0004    0.0000 C   0  0  0  0  0  0  0  0  0  0  0  0
    7.1964   -6.8073    0.0000 O   0  0  0  0  0  0  0  0  0  0  0  0
    7.6380   -5.4483    0.0000 N   0  0  0  0  0  0  0  0  0  0  0  0
    8.4226   -5.7033    0.0000 N   0  0  0  0  0  0  0  0  0  0  0  0
    9.0357   -5.1513    0.0000 C   0  0  0  0  0  0  0  0  0  0  0  0
    9.8203   -5.4062    0.0000 C   0  0  0  0  0  0  0  0  0  0  0  0
   10.4334   -4.8542    0.0000 C   0  0  0  0  0  0  0  0  0  0  0  0
   11.2180   -5.1091    0.0000 C   0  0  0  0  0  0  0  0  0  0  0  0
   11.3896   -5.9161    0.0000 N   0  0  0  0  0  0  0  0  0  0  0  0
   10.7765   -6.4681    0.0000 C   0  0  0  0  0  0  0  0  0  0  0  0
    9.9919   -6.2132    0.0000 C   0  0  0  0  0  0  0  0  0  0  0  0
  1  2  1  0
  2  3  2  0
  3  4  1  0
  4  5  1  0
  5  6  1  0
  2  6  1  0
  6  7  1  0
  7  8  1  0
  8  9  2  0
  9 10  1  0
 10 11  1  0
  7 11  1  0
 11 12  1  0
 12 13  1  0
 13 14  1  0
 14 15  1  0
 15 16  1  0
 16 17  1  0
 17 18  1  0
 13 18  1  0
 10 19  1  0
 19 20  2  0
 19 21  1  0
 21 22  1  0
 22 23  2  0
 23 24  1  0
 24 25  2  0
 25 26  1  0
 26 27  2  0
 27 28  1  0
 28 29  2  0
 24 29  1  0
M  END
>  <pIC50>  (31) 
4.02

>  <chembl_id>  (31) 
CHEMBL197077

>  <canonical_smiles>  (31) 
NC1=NONC1N2N=NC(C2CN3CCCCC3)C(=O)N\N=C\c4ccncc4

$$$$
CHEMBL1980391
     RDKit          2D

 25 28  0  0  0  0  0  0  0  0999 V2000
   -0.8014   -0.2624    0.0000 C   0  0  0  0  0  0  0  0  0  0  0  0
   -0.0159   -0.0105    0.0000 O   0  0  0  0  0  0  0  0  0  0  0  0
    0.5952   -0.5648    0.0000 C   0  0  0  0  0  0  0  0  0  0  0  0
    1.3807   -0.3128    0.0000 C   0  0  0  0  0  0  0  0  0  0  0  0
    1.9917   -0.8672    0.0000 C   0  0  0  0  0  0  0  0  0  0  0  0
    2.7310   -0.5009    0.0000 N   0  0  0  0  0  0  0  0  0  0  0  0
    3.4782   -0.8506    0.0000 C   0  0  0  0  0  0  0  0  0  0  0  0
    4.1817   -0.4195    0.0000 N   0  0  0  0  0  0  0  0  0  0  0  0
    4.8090   -0.9553    0.0000 N   0  0  0  0  0  0  0  0  0  0  0  0
    4.4933   -1.7175    0.0000 C   0  0  0  0  0  0  0  0  0  0  0  0
    4.9243   -2.4210    0.0000 C   0  0  0  0  0  0  0  0  0  0  0  0
    3.6708   -1.6528    0.0000 C   0  0  0  0  0  0  0  0  0  0  0  0
    3.1637   -2.3035    0.0000 N   0  0  0  0  0  0  0  0  0  0  0  0
    2.3387   -2.3127    0.0000 C   0  0  0  0  0  0  0  0  0  0  0  0
    1.9891   -3.0600    0.0000 C   0  0  0  0  0  0  0  0  0  0  0  0
    2.4614   -3.7364    0.0000 C   0  0  0  0  0  0  0  0  0  0  0  0
    2.1118   -4.4836    0.0000 C   0  0  0  0  0  0  0  0  0  0  0  0
    1.2898   -4.5545    0.0000 C   0  0  0  0  0  0  0  0  0  0  0  0
    0.8175   -3.8781    0.0000 C   0  0  0  0  0  0  0  0  0  0  0  0
    1.1671   -3.1308    0.0000 C   0  0  0  0  0  0  0  0  0  0  0  0
    0.6948   -2.4544    0.0000 Cl  0  0  0  0  0  0  0  0  0  0  0  0
    1.8172   -1.6735    0.0000 C   0  0  0  0  0  0  0  0  0  0  0  0
    1.0316   -1.9255    0.0000 C   0  0  0  0  0  0  0  0  0  0  0  0
    0.4206   -1.3711    0.0000 C   0  0  0  0  0  0  0  0  0  0  0  0
   -0.3650   -1.6231    0.0000 F   0  0  0  0  0  0  0  0  0  0  0  0
  1  2  1  0
  2  3  1  0
  3  4  2  0
  4  5  1  0
  5  6  1  0
  6  7  1  0
  7  8  1  0
  8  9  1  0
  9 10  2  0
 10 11  1  0
 10 12  1  0
  7 12  2  0
 12 13  1  0
 13 14  2  0
 14 15  1  0
 15 16  2  0
 16 17  1  0
 17 18  2  0
 18 19  1  0
 19 20  2  0
 15 20  1  0
 20 21  1  0
 14 22  1  0
  5 22  2  0
 22 23  1  0
 23 24  2  0
  3 24  1  0
 24 25  1  0
M  END
>  <pIC50>  (32) 
5.88

>  <chembl_id>  (32) 
CHEMBL1980391

>  <canonical_smiles>  (32) 
COc1cc2Nc3n[nH]c(C)c3N=C(c4ccccc4Cl)c2cc1F

$$$$
CHEMBL2011936
     RDKit          2D

 30 33  0  0  0  0  0  0  0  0999 V2000
   -0.6284    4.4656    0.0000 C   0  0  0  0  0  0  0  0  0  0  0  0
   -0.2159    3.7511    0.0000 O   0  0  0  0  0  0  0  0  0  0  0  0
   -0.6284    3.0366    0.0000 C   0  0  0  0  0  0  0  0  0  0  0  0
   -0.2159    2.3221    0.0000 C   0  0  0  0  0  0  0  0  0  0  0  0
   -0.6284    1.6077    0.0000 C   0  0  0  0  0  0  0  0  0  0  0  0
   -1.4534    1.6077    0.0000 C   0  0  0  0  0  0  0  0  0  0  0  0
   -1.8659    2.3221    0.0000 C   0  0  0  0  0  0  0  0  0  0  0  0
   -1.4534    3.0366    0.0000 C   0  0  0  0  0  0  0  0  0  0  0  0
   -1.8659    0.8932    0.0000 C   0  0  0  0  0  0  0  0  0  0  0  0
   -1.5303    0.1395    0.0000 N   0  0  0  0  0  0  0  0  0  0  0  0
   -2.1434   -0.4125    0.0000 C   0  0  0  0  0  0  0  0  0  0  0  0
   -2.1434   -1.2375    0.0000 C   0  0  0  0  0  0  0  0  0  0  0  0
   -1.4289   -1.6500    0.0000 N   0  0  0  0  0  0  0  0  0  0  0  0
   -0.7145   -1.2375    0.0000 C   0  0  0  0  0  0  0  0  0  0  0  0
    0.0000   -1.6500    0.0000 C   0  0  0  0  0  0  0  0  0  0  0  0
    0.7145   -1.2375    0.0000 C   0  0  0  0  0  0  0  0  0  0  0  0
    1.4289   -1.6500    0.0000 N   0  0  0  0  0  0  0  0  0  0  0  0
    2.1434   -1.2375    0.0000 C   0  0  0  0  0  0  0  0  0  0  0  0
    2.1434   -0.4125    0.0000 O   0  0  0  0  0  0  0  0  0  0  0  0
    2.8579   -1.6500    0.0000 C   0  0  0  0  0  0  0  0  0  0  0  0
    3.6116   -1.3144    0.0000 C   0  0  0  0  0  0  0  0  0  0  0  0
    4.1636   -1.9275    0.0000 C   0  0  0  0  0  0  0  0  0  0  0  0
    3.7511   -2.6420    0.0000 C   0  0  0  0  0  0  0  0  0  0  0  0
    2.9441   -2.4705    0.0000 C   0  0  0  0  0  0  0  0  0  0  0  0
   -2.8579   -1.6500    0.0000 C   0  0  0  0  0  0  0  0  0  0  0  0
   -2.8579   -2.4750    0.0000 Br  0  0  0  0  0  0  0  0  0  0  0  0
   -3.5724   -1.2375    0.0000 C   0  0  0  0  0  0  0  0  0  0  0  0
   -3.5724   -0.4125    0.0000 N   0  0  0  0  0  0  0  0  0  0  0  0
   -2.8579    0.0000    0.0000 C   0  0  0  0  0  0  0  0  0  0  0  0
   -2.6864    0.8070    0.0000 N   0  0  0  0  0  0  0  0  0  0  0  0
  1  2  1  0
  2  3  1  0
  3  4  2  0
  4  5  1  0
  5  6  2  0
  6  7  1  0
  7  8  2  0
  3  8  1  0
  6  9  1  0
  9 10  1  0
 10 11  1  0
 11 12  2  0
 12 13  1  0
 13 14  1  0
 14 15  1  0
 15 16  1  0
 16 17  1  0
 17 18  1  0
 18 19  2  0
 18 20  1  0
 20 21  1  0
 21 22  1  0
 22 23  1  0
 23 24  1  0
 20 24  1  0
 12 25  1  0
 25 26  1  0
 25 27  2  0
 27 28  1  0
 28 29  2  0
 11 29  1  0
 29 30  1  0
  9 30  2  0
M  END
>  <pIC50>  (33) 
5.55

>  <chembl_id>  (33) 
CHEMBL2011936

>  <canonical_smiles>  (33) 
COc1ccc(cc1)c2nc3c(NCCCNC(=O)C4CCCC4)c(Br)cnc3[nH]2

$$$$
CHEMBL201511
     RDKit          2D

 28 31  0  0  0  0  0  0  0  0999 V2000
   -1.7307    0.6908    0.0000 C   0  0  0  0  0  0  0  0  0  0  0  0
   -1.0632    0.2059    0.0000 O   0  0  0  0  0  0  0  0  0  0  0  0
   -1.1495   -0.6146    0.0000 C   0  0  0  0  0  0  0  0  0  0  0  0
   -0.4820   -1.0995    0.0000 C   0  0  0  0  0  0  0  0  0  0  0  0
   -0.5683   -1.9200    0.0000 C   0  0  0  0  0  0  0  0  0  0  0  0
   -1.3220   -2.2556    0.0000 C   0  0  0  0  0  0  0  0  0  0  0  0
   -1.9894   -1.7707    0.0000 C   0  0  0  0  0  0  0  0  0  0  0  0
   -2.7431   -2.1062    0.0000 O   0  0  0  0  0  0  0  0  0  0  0  0
   -3.4105   -1.6213    0.0000 C   0  0  0  0  0  0  0  0  0  0  0  0
   -1.9032   -0.9502    0.0000 C   0  0  0  0  0  0  0  0  0  0  0  0
   -2.5706   -0.4653    0.0000 O   0  0  0  0  0  0  0  0  0  0  0  0
   -2.4844    0.3552    0.0000 C   0  0  0  0  0  0  0  0  0  0  0  0
    0.0992   -2.4049    0.0000 C   0  0  0  0  0  0  0  0  0  0  0  0
    0.8838   -2.1500    0.0000 C   0  0  0  0  0  0  0  0  0  0  0  0
    1.3687   -2.8174    0.0000 C   0  0  0  0  0  0  0  0  0  0  0  0
    2.1937   -2.8174    0.0000 O   0  0  0  0  0  0  0  0  0  0  0  0
    0.8838   -3.4849    0.0000 N   0  0  0  0  0  0  0  0  0  0  0  0
    0.0992   -3.2299    0.0000 C   0  0  0  0  0  0  0  0  0  0  0  0
   -0.5683   -3.7149    0.0000 O   0  0  0  0  0  0  0  0  0  0  0  0
    1.1387   -1.3654    0.0000 C   0  0  0  0  0  0  0  0  0  0  0  0
    0.6538   -0.6979    0.0000 C   0  0  0  0  0  0  0  0  0  0  0  0
    1.1387   -0.0305    0.0000 N   0  0  0  0  0  0  0  0  0  0  0  0
    1.9233   -0.2854    0.0000 C   0  0  0  0  0  0  0  0  0  0  0  0
    2.6378    0.1271    0.0000 C   0  0  0  0  0  0  0  0  0  0  0  0
    3.3523   -0.2854    0.0000 C   0  0  0  0  0  0  0  0  0  0  0  0
    3.3523   -1.1104    0.0000 C   0  0  0  0  0  0  0  0  0  0  0  0
    2.6378   -1.5229    0.0000 C   0  0  0  0  0  0  0  0  0  0  0  0
    1.9233   -1.1104    0.0000 C   0  0  0  0  0  0  0  0  0  0  0  0
  1  2  1  0
  2  3  1  0
  3  4  2  0
  4  5  1  0
  5  6  2  0
  6  7  1  0
  7  8  1  0
  8  9  1  0
  7 10  2  0
  3 10  1  0
 10 11  1  0
 11 12  1  0
  5 13  1  0
 13 14  2  0
 14 15  1  0
 15 16  2  0
 15 17  1  0
 17 18  1  0
 13 18  1  0
 18 19  2  0
 14 20  1  0
 20 21  2  0
 21 22  1  0
 22 23  1  0
 23 24  2  0
 24 25  1  0
 25 26  2  0
 26 27  1  0
 27 28  2  0
 20 28  1  0
 23 28  1  0
M  END
>  <pIC50>  (34) 
5.16

>  <chembl_id>  (34) 
CHEMBL201511

>  <canonical_smiles>  (34) 
COc1cc(cc(OC)c1OC)C2=C(C(=O)NC2=O)c3c[nH]c4ccccc34

$$$$
CHEMBL202695
     RDKit          2D

 30 33  0  0  0  0  0  0  0  0999 V2000
   -1.0079    3.7125    0.0000 C   0  0  0  0  0  0  0  0  0  0  0  0
   -0.2934    4.1250    0.0000 N   0  0  0  0  0  0  0  0  0  0  0  0
   -0.2934    4.9500    0.0000 C   0  0  0  0  0  0  0  0  0  0  0  0
    0.4210    3.7125    0.0000 S   0  0  0  0  0  0  0  0  0  0  0  0
    0.0085    2.9980    0.0000 O   0  0  0  0  0  0  0  0  0  0  0  0
    0.8335    4.4270    0.0000 O   0  0  0  0  0  0  0  0  0  0  0  0
    1.1355    3.3000    0.0000 C   0  0  0  0  0  0  0  0  0  0  0  0
    1.8500    3.7125    0.0000 C   0  0  0  0  0  0  0  0  0  0  0  0
    2.5645    3.3000    0.0000 C   0  0  0  0  0  0  0  0  0  0  0  0
    2.5645    2.4750    0.0000 C   0  0  0  0  0  0  0  0  0  0  0  0
    3.2789    2.0625    0.0000 N   0  0  0  0  0  0  0  0  0  0  0  0
    3.2789    1.2375    0.0000 C   0  0  0  0  0  0  0  0  0  0  0  0
    3.9934    0.8250    0.0000 C   0  0  0  0  0  0  0  0  0  0  0  0
    3.9934    0.0000    0.0000 C   0  0  0  0  0  0  0  0  0  0  0  0
    4.7079   -0.4125    0.0000 N   0  0  0  0  0  0  0  0  0  0  0  0
    4.7079   -1.2375    0.0000 C   0  0  0  0  0  0  0  0  0  0  0  0
    5.4223   -1.6500    0.0000 C   0  0  0  0  0  0  0  0  0  0  0  0
    5.4223   -2.4750    0.0000 C   0  0  0  0  0  0  0  0  0  0  0  0
    4.7079   -2.8875    0.0000 C   0  0  0  0  0  0  0  0  0  0  0  0
    4.7079   -3.7125    0.0000 N   0  0  0  0  0  0  0  0  0  0  0  0
    3.9934   -2.4750    0.0000 C   0  0  0  0  0  0  0  0  0  0  0  0
    3.9934   -1.6500    0.0000 C   0  0  0  0  0  0  0  0  0  0  0  0
    3.2789   -0.4125    0.0000 N   0  0  0  0  0  0  0  0  0  0  0  0
    2.5645    0.0000    0.0000 C   0  0  0  0  0  0  0  0  0  0  0  0
    1.7798   -0.2549    0.0000 N   0  0  0  0  0  0  0  0  0  0  0  0
    1.2949    0.4125    0.0000 C   0  0  0  0  0  0  0  0  0  0  0  0
    1.7798    1.0799    0.0000 N   0  0  0  0  0  0  0  0  0  0  0  0
    2.5645    0.8250    0.0000 N   0  0  0  0  0  0  0  0  0  0  0  0
    1.8500    2.0625    0.0000 C   0  0  0  0  0  0  0  0  0  0  0  0
    1.1355    2.4750    0.0000 C   0  0  0  0  0  0  0  0  0  0  0  0
  1  2  1  0
  2  3  1  0
  2  4  1  0
  4  5  2  0
  4  6  2  0
  4  7  1  0
  7  8  2  0
  8  9  1  0
  9 10  2  0
 10 11  1  0
 11 12  1  0
 12 13  2  0
 13 14  1  0
 14 15  1  0
 16 15  1  6
 16 17  1  0
 17 18  1  0
 19 18  1  0
 19 20  1  1
 19 21  1  0
 21 22  1  0
 16 22  1  0
 14 23  2  0
 23 24  1  0
 24 25  2  0
 25 26  1  0
 26 27  2  0
 27 28  1  0
 12 28  1  0
 24 28  1  0
 10 29  1  0
 29 30  2  0
  7 30  1  0
M  END
>  <pIC50>  (35) 
6.92

>  <chembl_id>  (35) 
CHEMBL202695

>  <canonical_smiles>  (35) 
CN(C)S(=O)(=O)c1ccc(Nc2cc(N[C@@H]3CC[C@@H](N)CC3)nc4ncnn24)cc1

$$$$
CHEMBL203006
     RDKit          2D

 24 27  0  0  0  0  0  0  0  0999 V2000
    4.7812    4.4104    0.0000 Br  0  0  0  0  0  0  0  0  0  0  0  0
    4.7812    3.5854    0.0000 C   0  0  0  0  0  0  0  0  0  0  0  0
    5.4957    3.1729    0.0000 C   0  0  0  0  0  0  0  0  0  0  0  0
    5.4957    2.3479    0.0000 C   0  0  0  0  0  0  0  0  0  0  0  0
    4.7812    1.9354    0.0000 C   0  0  0  0  0  0  0  0  0  0  0  0
    4.0668    2.3479    0.0000 C   0  0  0  0  0  0  0  0  0  0  0  0
    4.0668    3.1729    0.0000 C   0  0  0  0  0  0  0  0  0  0  0  0
    3.3523    1.9354    0.0000 C   0  0  0  0  0  0  0  0  0  0  0  0
    3.3523    1.1104    0.0000 C   0  0  0  0  0  0  0  0  0  0  0  0
    2.6378    0.6979    0.0000 C   0  0  0  0  0  0  0  0  0  0  0  0
    2.6378   -0.1271    0.0000 N   0  0  0  0  0  0  0  0  0  0  0  0
    3.3523   -0.5396    0.0000 C   0  0  0  0  0  0  0  0  0  0  0  0
    3.3523   -1.3646    0.0000 C   0  0  0  0  0  0  0  0  0  0  0  0
    4.0668   -1.7771    0.0000 C   0  0  0  0  0  0  0  0  0  0  0  0
    4.0668   -2.6021    0.0000 C   0  0  0  0  0  0  0  0  0  0  0  0
    3.3523   -3.0146    0.0000 N   0  0  0  0  0  0  0  0  0  0  0  0
    2.6378   -2.6021    0.0000 C   0  0  0  0  0  0  0  0  0  0  0  0
    2.6378   -1.7771    0.0000 C   0  0  0  0  0  0  0  0  0  0  0  0
    1.9233    1.1104    0.0000 N   0  0  0  0  0  0  0  0  0  0  0  0
    1.1387    0.8555    0.0000 N   0  0  0  0  0  0  0  0  0  0  0  0
    0.6538    1.5229    0.0000 C   0  0  0  0  0  0  0  0  0  0  0  0
    1.1387    2.1904    0.0000 N   0  0  0  0  0  0  0  0  0  0  0  0
    1.9233    1.9354    0.0000 C   0  0  0  0  0  0  0  0  0  0  0  0
    2.6378    2.3479    0.0000 N   0  0  0  0  0  0  0  0  0  0  0  0
  1  2  1  0
  2  3  2  0
  3  4  1  0
  4  5  2  0
  5  6  1  0
  6  7  2  0
  2  7  1  0
  6  8  1  0
  8  9  1  0
  9 10  2  0
 10 11  1  0
 11 12  1  0
 12 13  1  0
 13 14  2  0
 14 15  1  0
 15 16  2  0
 16 17  1  0
 17 18  2  0
 13 18  1  0
 10 19  1  0
 19 20  1  0
 20 21  2  0
 21 22  1  0
 22 23  2  0
 19 23  1  0
 23 24  1  0
  8 24  2  0
M  END
>  <pIC50>  (36) 
4.59

>  <chembl_id>  (36) 
CHEMBL203006

>  <canonical_smiles>  (36) 
Brc1cccc(c1)c2cc(NCc3ccncc3)n4ncnc4n2

$$$$
CHEMBL203407
     RDKit          2D

 27 30  0  0  0  0  0  0  0  0999 V2000
   -0.2934    4.1250    0.0000 N   0  0  0  0  0  0  0  0  0  0  0  0
    0.4210    3.7125    0.0000 S   0  0  0  0  0  0  0  0  0  0  0  0
    0.0085    2.9980    0.0000 O   0  0  0  0  0  0  0  0  0  0  0  0
    0.8335    4.4270    0.0000 O   0  0  0  0  0  0  0  0  0  0  0  0
    1.1355    3.3000    0.0000 C   0  0  0  0  0  0  0  0  0  0  0  0
    1.8500    3.7125    0.0000 C   0  0  0  0  0  0  0  0  0  0  0  0
    2.5645    3.3000    0.0000 C   0  0  0  0  0  0  0  0  0  0  0  0
    2.5645    2.4750    0.0000 C   0  0  0  0  0  0  0  0  0  0  0  0
    3.2789    2.0625    0.0000 N   0  0  0  0  0  0  0  0  0  0  0  0
    3.2789    1.2375    0.0000 C   0  0  0  0  0  0  0  0  0  0  0  0
    3.9934    0.8250    0.0000 C   0  0  0  0  0  0  0  0  0  0  0  0
    3.9934    0.0000    0.0000 C   0  0  0  0  0  0  0  0  0  0  0  0
    4.7079   -0.4125    0.0000 O   0  0  0  0  0  0  0  0  0  0  0  0
    4.7079   -1.2375    0.0000 C   0  0  0  0  0  0  0  0  0  0  0  0
    5.4223   -1.6500    0.0000 C   0  0  0  0  0  0  0  0  0  0  0  0
    5.4223   -2.4750    0.0000 C   0  0  0  0  0  0  0  0  0  0  0  0
    4.7079   -2.8875    0.0000 C   0  0  0  0  0  0  0  0  0  0  0  0
    3.9934   -2.4750    0.0000 C   0  0  0  0  0  0  0  0  0  0  0  0
    3.9934   -1.6500    0.0000 C   0  0  0  0  0  0  0  0  0  0  0  0
    3.2789   -0.4125    0.0000 N   0  0  0  0  0  0  0  0  0  0  0  0
    2.5645    0.0000    0.0000 C   0  0  0  0  0  0  0  0  0  0  0  0
    1.7798   -0.2549    0.0000 N   0  0  0  0  0  0  0  0  0  0  0  0
    1.2949    0.4125    0.0000 C   0  0  0  0  0  0  0  0  0  0  0  0
    1.7798    1.0799    0.0000 N   0  0  0  0  0  0  0  0  0  0  0  0
    2.5645    0.8250    0.0000 N   0  0  0  0  0  0  0  0  0  0  0  0
    1.8500    2.0625    0.0000 C   0  0  0  0  0  0  0  0  0  0  0  0
    1.1355    2.4750    0.0000 C   0  0  0  0  0  0  0  0  0  0  0  0
  1  2  1  0
  2  3  2  0
  2  4  2  0
  2  5  1  0
  5  6  2  0
  6  7  1  0
  7  8  2  0
  8  9  1  0
  9 10  1  0
 10 11  2  0
 11 12  1  0
 12 13  1  0
 13 14  1  0
 14 15  1  0
 15 16  1  0
 16 17  1  0
 17 18  1  0
 18 19  1  0
 14 19  1  0
 12 20  2  0
 20 21  1  0
 21 22  2  0
 22 23  1  0
 23 24  2  0
 24 25  1  0
 10 25  1  0
 21 25  1  0
  8 26  1  0
 26 27  2  0
  5 27  1  0
M  END
>  <pIC50>  (37) 
6.46

>  <chembl_id>  (37) 
CHEMBL203407

>  <canonical_smiles>  (37) 
NS(=O)(=O)c1ccc(Nc2cc(OC3CCCCC3)nc4ncnn24)cc1

$$$$
CHEMBL203569
     RDKit          2D

 27 30  0  0  0  0  0  0  0  0999 V2000
   -0.2934    4.1250    0.0000 N   0  0  0  0  0  0  0  0  0  0  0  0
    0.4210    3.7125    0.0000 S   0  0  0  0  0  0  0  0  0  0  0  0
    0.0085    2.9980    0.0000 O   0  0  0  0  0  0  0  0  0  0  0  0
    0.8335    4.4270    0.0000 O   0  0  0  0  0  0  0  0  0  0  0  0
    1.1355    3.3000    0.0000 C   0  0  0  0  0  0  0  0  0  0  0  0
    1.8500    3.7125    0.0000 C   0  0  0  0  0  0  0  0  0  0  0  0
    2.5645    3.3000    0.0000 C   0  0  0  0  0  0  0  0  0  0  0  0
    2.5645    2.4750    0.0000 C   0  0  0  0  0  0  0  0  0  0  0  0
    3.2789    2.0625    0.0000 N   0  0  0  0  0  0  0  0  0  0  0  0
    3.2789    1.2375    0.0000 C   0  0  0  0  0  0  0  0  0  0  0  0
    3.9934    0.8250    0.0000 C   0  0  0  0  0  0  0  0  0  0  0  0
    3.9934    0.0000    0.0000 C   0  0  0  0  0  0  0  0  0  0  0  0
    4.7079   -0.4125    0.0000 N   0  0  0  0  0  0  0  0  0  0  0  0
    4.7079   -1.2375    0.0000 C   0  0  0  0  0  0  0  0  0  0  0  0
    5.4223   -1.6500    0.0000 C   0  0  0  0  0  0  0  0  0  0  0  0
    5.4223   -2.4750    0.0000 C   0  0  0  0  0  0  0  0  0  0  0  0
    4.7079   -2.8875    0.0000 C   0  0  0  0  0  0  0  0  0  0  0  0
    3.9934   -2.4750    0.0000 C   0  0  0  0  0  0  0  0  0  0  0  0
    3.9934   -1.6500    0.0000 C   0  0  0  0  0  0  0  0  0  0  0  0
    3.2789   -0.4125    0.0000 N   0  0  0  0  0  0  0  0  0  0  0  0
    2.5645    0.0000    0.0000 C   0  0  0  0  0  0  0  0  0  0  0  0
    1.7798   -0.2549    0.0000 N   0  0  0  0  0  0  0  0  0  0  0  0
    1.2949    0.4125    0.0000 C   0  0  0  0  0  0  0  0  0  0  0  0
    1.7798    1.0799    0.0000 N   0  0  0  0  0  0  0  0  0  0  0  0
    2.5645    0.8250    0.0000 N   0  0  0  0  0  0  0  0  0  0  0  0
    1.8500    2.0625    0.0000 C   0  0  0  0  0  0  0  0  0  0  0  0
    1.1355    2.4750    0.0000 C   0  0  0  0  0  0  0  0  0  0  0  0
  1  2  1  0
  2  3  2  0
  2  4  2  0
  2  5  1  0
  5  6  2  0
  6  7  1  0
  7  8  2  0
  8  9  1  0
  9 10  1  0
 10 11  2  0
 11 12  1  0
 12 13  1  0
 13 14  1  0
 14 15  1  0
 15 16  1  0
 16 17  1  0
 17 18  1  0
 18 19  1  0
 14 19  1  0
 12 20  2  0
 20 21  1  0
 21 22  2  0
 22 23  1  0
 23 24  2  0
 24 25  1  0
 10 25  1  0
 21 25  1  0
  8 26  1  0
 26 27  2  0
  5 27  1  0
M  END
>  <pIC50>  (38) 
6.14

>  <chembl_id>  (38) 
CHEMBL203569

>  <canonical_smiles>  (38) 
NS(=O)(=O)c1ccc(Nc2cc(NC3CCCCC3)nc4ncnn24)cc1

$$$$
CHEMBL203571
     RDKit          2D

 25 27  0  0  0  0  0  0  0  0999 V2000
    4.7812    3.5854    0.0000 C   0  0  0  0  0  0  0  0  0  0  0  0
    4.0668    3.1729    0.0000 C   0  0  0  0  0  0  0  0  0  0  0  0
    4.0668    2.3479    0.0000 N   0  0  0  0  0  0  0  0  0  0  0  0
    4.7812    1.9354    0.0000 C   0  0  0  0  0  0  0  0  0  0  0  0
    4.7812    1.1104    0.0000 C   0  0  0  0  0  0  0  0  0  0  0  0
    3.3523    1.9354    0.0000 C   0  0  0  0  0  0  0  0  0  0  0  0
    3.3523    1.1104    0.0000 C   0  0  0  0  0  0  0  0  0  0  0  0
    2.6378    0.6979    0.0000 C   0  0  0  0  0  0  0  0  0  0  0  0
    2.6378   -0.1271    0.0000 N   0  0  0  0  0  0  0  0  0  0  0  0
    1.9233   -0.5396    0.0000 C   0  0  0  0  0  0  0  0  0  0  0  0
    1.9233   -1.3646    0.0000 C   0  0  0  0  0  0  0  0  0  0  0  0
    1.2089   -1.7771    0.0000 C   0  0  0  0  0  0  0  0  0  0  0  0
    0.4944   -1.3646    0.0000 C   0  0  0  0  0  0  0  0  0  0  0  0
    0.4944   -0.5396    0.0000 C   0  0  0  0  0  0  0  0  0  0  0  0
    1.2089   -0.1271    0.0000 C   0  0  0  0  0  0  0  0  0  0  0  0
   -0.2201   -1.7771    0.0000 S   0  0  0  0  0  0  0  0  0  0  0  0
   -0.9345   -2.1896    0.0000 O   0  0  0  0  0  0  0  0  0  0  0  0
   -0.6326   -1.0626    0.0000 O   0  0  0  0  0  0  0  0  0  0  0  0
    0.1924   -2.4915    0.0000 N   0  0  0  0  0  0  0  0  0  0  0  0
    1.9233    1.1104    0.0000 N   0  0  0  0  0  0  0  0  0  0  0  0
    1.1387    0.8555    0.0000 N   0  0  0  0  0  0  0  0  0  0  0  0
    0.6538    1.5229    0.0000 C   0  0  0  0  0  0  0  0  0  0  0  0
    1.1387    2.1904    0.0000 N   0  0  0  0  0  0  0  0  0  0  0  0
    1.9233    1.9354    0.0000 C   0  0  0  0  0  0  0  0  0  0  0  0
    2.6378    2.3479    0.0000 N   0  0  0  0  0  0  0  0  0  0  0  0
  1  2  1  0
  2  3  1  0
  3  4  1  0
  4  5  1  0
  3  6  1  0
  6  7  1  0
  7  8  2  0
  8  9  1  0
  9 10  1  0
 10 11  2  0
 11 12  1  0
 12 13  2  0
 13 14  1  0
 14 15  2  0
 10 15  1  0
 13 16  1  0
 16 17  2  0
 16 18  2  0
 16 19  1  0
  8 20  1  0
 20 21  1  0
 21 22  2  0
 22 23  1  0
 23 24  2  0
 20 24  1  0
 24 25  1  0
  6 25  2  0
M  END
>  <pIC50>  (39) 
6.40

>  <chembl_id>  (39) 
CHEMBL203571

>  <canonical_smiles>  (39) 
CCN(CC)c1cc(Nc2ccc(cc2)S(=O)(=O)N)n3ncnc3n1

$$$$
CHEMBL203573
     RDKit          2D

 28 31  0  0  0  0  0  0  0  0999 V2000
   -0.2934    4.1250    0.0000 N   0  0  0  0  0  0  0  0  0  0  0  0
    0.4210    3.7125    0.0000 S   0  0  0  0  0  0  0  0  0  0  0  0
    0.0085    2.9980    0.0000 O   0  0  0  0  0  0  0  0  0  0  0  0
    0.8335    4.4270    0.0000 O   0  0  0  0  0  0  0  0  0  0  0  0
    1.1355    3.3000    0.0000 C   0  0  0  0  0  0  0  0  0  0  0  0
    1.8500    3.7125    0.0000 C   0  0  0  0  0  0  0  0  0  0  0  0
    2.5645    3.3000    0.0000 C   0  0  0  0  0  0  0  0  0  0  0  0
    2.5645    2.4750    0.0000 C   0  0  0  0  0  0  0  0  0  0  0  0
    3.2789    2.0625    0.0000 N   0  0  0  0  0  0  0  0  0  0  0  0
    3.2789    1.2375    0.0000 C   0  0  0  0  0  0  0  0  0  0  0  0
    3.9934    0.8250    0.0000 C   0  0  0  0  0  0  0  0  0  0  0  0
    3.9934    0.0000    0.0000 C   0  0  0  0  0  0  0  0  0  0  0  0
    4.7079   -0.4125    0.0000 N   0  0  0  0  0  0  0  0  0  0  0  0
    4.7079   -1.2375    0.0000 C   0  0  0  0  0  0  0  0  0  0  0  0
    5.4223   -1.6500    0.0000 C   0  0  0  0  0  0  0  0  0  0  0  0
    5.4223   -2.4750    0.0000 C   0  0  0  0  0  0  0  0  0  0  0  0
    4.7079   -2.8875    0.0000 C   0  0  0  0  0  0  0  0  0  0  0  0
    4.7079   -3.7125    0.0000 O   0  0  0  0  0  0  0  0  0  0  0  0
    3.9934   -2.4750    0.0000 C   0  0  0  0  0  0  0  0  0  0  0  0
    3.9934   -1.6500    0.0000 C   0  0  0  0  0  0  0  0  0  0  0  0
    3.2789   -0.4125    0.0000 N   0  0  0  0  0  0  0  0  0  0  0  0
    2.5645    0.0000    0.0000 C   0  0  0  0  0  0  0  0  0  0  0  0
    1.7798   -0.2549    0.0000 N   0  0  0  0  0  0  0  0  0  0  0  0
    1.2949    0.4125    0.0000 C   0  0  0  0  0  0  0  0  0  0  0  0
    1.7798    1.0799    0.0000 N   0  0  0  0  0  0  0  0  0  0  0  0
    2.5645    0.8250    0.0000 N   0  0  0  0  0  0  0  0  0  0  0  0
    1.8500    2.0625    0.0000 C   0  0  0  0  0  0  0  0  0  0  0  0
    1.1355    2.4750    0.0000 C   0  0  0  0  0  0  0  0  0  0  0  0
  1  2  1  0
  2  3  2  0
  2  4  2  0
  2  5  1  0
  5  6  2  0
  6  7  1  0
  7  8  2  0
  8  9  1  0
  9 10  1  0
 10 11  2  0
 11 12  1  0
 12 13  1  0
 14 13  1  6
 14 15  1  0
 15 16  1  0
 17 16  1  0
 17 18  1  1
 17 19  1  0
 19 20  1  0
 14 20  1  0
 12 21  2  0
 21 22  1  0
 22 23  2  0
 23 24  1  0
 24 25  2  0
 25 26  1  0
 10 26  1  0
 22 26  1  0
  8 27  1  0
 27 28  2  0
  5 28  1  0
M  END
>  <pIC50>  (40) 
5.13

>  <chembl_id>  (40) 
CHEMBL203573

>  <canonical_smiles>  (40) 
NS(=O)(=O)c1ccc(Nc2cc(N[C@@H]3CC[C@@H](O)CC3)nc4ncnn24)cc1

$$$$
CHEMBL204054
     RDKit          2D

 24 27  0  0  0  0  0  0  0  0999 V2000
    4.7812    4.4104    0.0000 Br  0  0  0  0  0  0  0  0  0  0  0  0
    4.7812    3.5854    0.0000 C   0  0  0  0  0  0  0  0  0  0  0  0
    5.4957    3.1729    0.0000 C   0  0  0  0  0  0  0  0  0  0  0  0
    5.4957    2.3479    0.0000 C   0  0  0  0  0  0  0  0  0  0  0  0
    4.7812    1.9354    0.0000 C   0  0  0  0  0  0  0  0  0  0  0  0
    4.0668    2.3479    0.0000 C   0  0  0  0  0  0  0  0  0  0  0  0
    4.0668    3.1729    0.0000 C   0  0  0  0  0  0  0  0  0  0  0  0
    3.3523    1.9354    0.0000 C   0  0  0  0  0  0  0  0  0  0  0  0
    3.3523    1.1104    0.0000 C   0  0  0  0  0  0  0  0  0  0  0  0
    2.6378    0.6979    0.0000 C   0  0  0  0  0  0  0  0  0  0  0  0
    2.6378   -0.1271    0.0000 N   0  0  0  0  0  0  0  0  0  0  0  0
    3.3523   -0.5396    0.0000 C   0  0  0  0  0  0  0  0  0  0  0  0
    3.3523   -1.3646    0.0000 C   0  0  0  0  0  0  0  0  0  0  0  0
    4.0668   -1.7771    0.0000 C   0  0  0  0  0  0  0  0  0  0  0  0
    4.0668   -2.6021    0.0000 C   0  0  0  0  0  0  0  0  0  0  0  0
    3.3523   -3.0146    0.0000 N   0  0  0  0  0  0  0  0  0  0  0  0
    2.6378   -2.6021    0.0000 C   0  0  0  0  0  0  0  0  0  0  0  0
    2.6378   -1.7771    0.0000 C   0  0  0  0  0  0  0  0  0  0  0  0
    1.9233    1.1104    0.0000 N   0  0  0  0  0  0  0  0  0  0  0  0
    1.1387    0.8555    0.0000 N   0  0  0  0  0  0  0  0  0  0  0  0
    0.6538    1.5229    0.0000 C   0  0  0  0  0  0  0  0  0  0  0  0
    1.1387    2.1904    0.0000 C   0  0  0  0  0  0  0  0  0  0  0  0
    1.9233    1.9354    0.0000 C   0  0  0  0  0  0  0  0  0  0  0  0
    2.6378    2.3479    0.0000 N   0  0  0  0  0  0  0  0  0  0  0  0
  1  2  1  0
  2  3  2  0
  3  4  1  0
  4  5  2  0
  5  6  1  0
  6  7  2  0
  2  7  1  0
  6  8  1  0
  8  9  1  0
  9 10  2  0
 10 11  1  0
 11 12  1  0
 12 13  1  0
 13 14  2  0
 14 15  1  0
 15 16  2  0
 16 17  1  0
 17 18  2  0
 13 18  1  0
 10 19  1  0
 19 20  1  0
 20 21  2  0
 21 22  1  0
 22 23  2  0
 19 23  1  0
 23 24  1  0
  8 24  2  0
M  END
>  <pIC50>  (41) 
5.74

>  <chembl_id>  (41) 
CHEMBL204054

>  <canonical_smiles>  (41) 
Brc1cccc(c1)c2cc(NCc3ccncc3)n4nccc4n2

$$$$
CHEMBL206109
     RDKit          2D

 28 31  0  0  0  0  0  0  0  0999 V2000
   -0.2934    4.1250    0.0000 N   0  0  0  0  0  0  0  0  0  0  0  0
    0.4210    3.7125    0.0000 S   0  0  0  0  0  0  0  0  0  0  0  0
    0.0085    2.9980    0.0000 O   0  0  0  0  0  0  0  0  0  0  0  0
    0.8335    4.4270    0.0000 O   0  0  0  0  0  0  0  0  0  0  0  0
    1.1355    3.3000    0.0000 C   0  0  0  0  0  0  0  0  0  0  0  0
    1.8500    3.7125    0.0000 C   0  0  0  0  0  0  0  0  0  0  0  0
    2.5645    3.3000    0.0000 C   0  0  0  0  0  0  0  0  0  0  0  0
    2.5645    2.4750    0.0000 C   0  0  0  0  0  0  0  0  0  0  0  0
    3.2789    2.0625    0.0000 N   0  0  0  0  0  0  0  0  0  0  0  0
    3.2789    1.2375    0.0000 C   0  0  0  0  0  0  0  0  0  0  0  0
    3.9934    0.8250    0.0000 C   0  0  0  0  0  0  0  0  0  0  0  0
    3.9934    0.0000    0.0000 C   0  0  0  0  0  0  0  0  0  0  0  0
    4.7079   -0.4125    0.0000 O   0  0  0  0  0  0  0  0  0  0  0  0
    5.4223    0.0000    0.0000 C   0  0  0  0  0  0  0  0  0  0  0  0
    6.1368   -0.4125    0.0000 C   0  0  0  0  0  0  0  0  0  0  0  0
    6.8513    0.0000    0.0000 C   0  0  0  0  0  0  0  0  0  0  0  0
    7.5658   -0.4125    0.0000 C   0  0  0  0  0  0  0  0  0  0  0  0
    7.5658   -1.2375    0.0000 C   0  0  0  0  0  0  0  0  0  0  0  0
    6.8513   -1.6500    0.0000 C   0  0  0  0  0  0  0  0  0  0  0  0
    6.1368   -1.2375    0.0000 C   0  0  0  0  0  0  0  0  0  0  0  0
    3.2789   -0.4125    0.0000 N   0  0  0  0  0  0  0  0  0  0  0  0
    2.5645    0.0000    0.0000 C   0  0  0  0  0  0  0  0  0  0  0  0
    1.7798   -0.2549    0.0000 N   0  0  0  0  0  0  0  0  0  0  0  0
    1.2949    0.4125    0.0000 C   0  0  0  0  0  0  0  0  0  0  0  0
    1.7798    1.0799    0.0000 N   0  0  0  0  0  0  0  0  0  0  0  0
    2.5645    0.8250    0.0000 N   0  0  0  0  0  0  0  0  0  0  0  0
    1.8500    2.0625    0.0000 C   0  0  0  0  0  0  0  0  0  0  0  0
    1.1355    2.4750    0.0000 C   0  0  0  0  0  0  0  0  0  0  0  0
  1  2  1  0
  2  3  2  0
  2  4  2  0
  2  5  1  0
  5  6  2  0
  6  7  1  0
  7  8  2  0
  8  9  1  0
  9 10  1  0
 10 11  2  0
 11 12  1  0
 12 13  1  0
 13 14  1  0
 14 15  1  0
 15 16  1  0
 16 17  1  0
 17 18  1  0
 18 19  1  0
 19 20  1  0
 15 20  1  0
 12 21  2  0
 21 22  1  0
 22 23  2  0
 23 24  1  0
 24 25  2  0
 25 26  1  0
 10 26  1  0
 22 26  1  0
  8 27  1  0
 27 28  2  0
  5 28  1  0
M  END
>  <pIC50>  (42) 
4.96

>  <chembl_id>  (42) 
CHEMBL206109

>  <canonical_smiles>  (42) 
NS(=O)(=O)c1ccc(Nc2cc(OCC3CCCCC3)nc4ncnn24)cc1

$$$$
CHEMBL2062563
     RDKit          2D

 28 32  0  0  0  0  0  0  0  0999 V2000
    4.8546   -1.1143    0.0000 C   0  0  0  0  0  0  0  0  0  0  0  0
    4.1401   -1.5268    0.0000 C   0  0  0  0  0  0  0  0  0  0  0  0
    4.1401   -2.3518    0.0000 O   0  0  0  0  0  0  0  0  0  0  0  0
    3.4256   -1.1143    0.0000 N   0  0  0  0  0  0  0  0  0  0  0  0
    2.7112   -1.5268    0.0000 C   0  0  0  0  0  0  0  0  0  0  0  0
    2.7112   -2.3518    0.0000 C   0  0  0  0  0  0  0  0  0  0  0  0
    1.9967   -2.7643    0.0000 C   0  0  0  0  0  0  0  0  0  0  0  0
    1.2822   -2.3518    0.0000 C   0  0  0  0  0  0  0  0  0  0  0  0
    0.4976   -2.6067    0.0000 C   0  0  0  0  0  0  0  0  0  0  0  0
    0.0127   -1.9393    0.0000 C   0  0  0  0  0  0  0  0  0  0  0  0
    0.4976   -1.2718    0.0000 N   0  0  0  0  0  0  0  0  0  0  0  0
    0.2427   -0.4872    0.0000 C   0  0  0  0  0  0  0  0  0  0  0  0
   -0.5643   -0.3157    0.0000 C   0  0  0  0  0  0  0  0  0  0  0  0
   -0.8192    0.4689    0.0000 C   0  0  0  0  0  0  0  0  0  0  0  0
   -1.6262    0.6404    0.0000 N   0  0  0  0  0  0  0  0  0  0  0  0
   -1.8812    1.4251    0.0000 C   0  0  0  0  0  0  0  0  0  0  0  0
   -2.4942    1.9771    0.0000 C   0  0  0  0  0  0  0  0  0  0  0  0
   -1.7096    2.2320    0.0000 C   0  0  0  0  0  0  0  0  0  0  0  0
   -0.2672    1.0820    0.0000 N   0  0  0  0  0  0  0  0  0  0  0  0
   -0.3534    1.9025    0.0000 N   0  0  0  0  0  0  0  0  0  0  0  0
    0.4002    2.2381    0.0000 C   0  0  0  0  0  0  0  0  0  0  0  0
    0.9523    1.6250    0.0000 C   0  0  0  0  0  0  0  0  0  0  0  0
    1.7727    1.7112    0.0000 C   0  0  0  0  0  0  0  0  0  0  0  0
    2.5932    1.7974    0.0000 N   0  0  0  0  0  0  0  0  0  0  0  0
    0.5398    0.9105    0.0000 C   0  0  0  0  0  0  0  0  0  0  0  0
    0.7947    0.1259    0.0000 N   0  0  0  0  0  0  0  0  0  0  0  0
    1.2822   -1.5268    0.0000 C   0  0  0  0  0  0  0  0  0  0  0  0
    1.9967   -1.1143    0.0000 C   0  0  0  0  0  0  0  0  0  0  0  0
  1  2  1  0
  2  3  2  0
  2  4  1  0
  4  5  1  0
  5  6  2  0
  6  7  1  0
  7  8  2  0
  8  9  1  0
  9 10  2  0
 10 11  1  0
 11 12  1  0
 12 13  1  0
 13 14  2  0
 14 15  1  0
 15 16  1  0
 16 17  1  0
 17 18  1  0
 16 18  1  0
 14 19  1  0
 19 20  1  0
 20 21  2  0
 21 22  1  0
 22 23  1  0
 23 24  3  0
 22 25  2  0
 19 25  1  0
 25 26  1  0
 12 26  2  0
 11 27  1  0
  8 27  1  0
 27 28  2  0
  5 28  1  0
M  END
>  <pIC50>  (43) 
4.59

>  <chembl_id>  (43) 
CHEMBL2062563

>  <canonical_smiles>  (43) 
CC(=O)Nc1ccc2ccn(c3cc(NC4CC4)n5ncc(C#N)c5n3)c2c1

$$$$
CHEMBL2062581
     RDKit          2D

 28 32  0  0  0  0  0  0  0  0999 V2000
    4.8546   -1.1143    0.0000 C   0  0  0  0  0  0  0  0  0  0  0  0
    4.1401   -1.5268    0.0000 C   0  0  0  0  0  0  0  0  0  0  0  0
    4.1401   -2.3518    0.0000 O   0  0  0  0  0  0  0  0  0  0  0  0
    3.4256   -1.1143    0.0000 N   0  0  0  0  0  0  0  0  0  0  0  0
    2.7112   -1.5268    0.0000 C   0  0  0  0  0  0  0  0  0  0  0  0
    2.7112   -2.3518    0.0000 C   0  0  0  0  0  0  0  0  0  0  0  0
    1.9967   -2.7643    0.0000 C   0  0  0  0  0  0  0  0  0  0  0  0
    1.2822   -2.3518    0.0000 C   0  0  0  0  0  0  0  0  0  0  0  0
    0.4976   -2.6067    0.0000 N   0  0  0  0  0  0  0  0  0  0  0  0
    0.0127   -1.9393    0.0000 C   0  0  0  0  0  0  0  0  0  0  0  0
    0.4976   -1.2718    0.0000 C   0  0  0  0  0  0  0  0  0  0  0  0
    0.2427   -0.4872    0.0000 C   0  0  0  0  0  0  0  0  0  0  0  0
   -0.5643   -0.3157    0.0000 C   0  0  0  0  0  0  0  0  0  0  0  0
   -0.8192    0.4689    0.0000 C   0  0  0  0  0  0  0  0  0  0  0  0
   -1.6262    0.6404    0.0000 N   0  0  0  0  0  0  0  0  0  0  0  0
   -1.8812    1.4251    0.0000 C   0  0  0  0  0  0  0  0  0  0  0  0
   -2.4942    1.9771    0.0000 C   0  0  0  0  0  0  0  0  0  0  0  0
   -1.7096    2.2320    0.0000 C   0  0  0  0  0  0  0  0  0  0  0  0
   -0.2672    1.0820    0.0000 N   0  0  0  0  0  0  0  0  0  0  0  0
   -0.3534    1.9025    0.0000 N   0  0  0  0  0  0  0  0  0  0  0  0
    0.4002    2.2381    0.0000 C   0  0  0  0  0  0  0  0  0  0  0  0
    0.9523    1.6250    0.0000 C   0  0  0  0  0  0  0  0  0  0  0  0
    1.7727    1.7112    0.0000 C   0  0  0  0  0  0  0  0  0  0  0  0
    2.5932    1.7974    0.0000 N   0  0  0  0  0  0  0  0  0  0  0  0
    0.5398    0.9105    0.0000 C   0  0  0  0  0  0  0  0  0  0  0  0
    0.7947    0.1259    0.0000 N   0  0  0  0  0  0  0  0  0  0  0  0
    1.2822   -1.5268    0.0000 C   0  0  0  0  0  0  0  0  0  0  0  0
    1.9967   -1.1143    0.0000 C   0  0  0  0  0  0  0  0  0  0  0  0
  1  2  1  0
  2  3  2  0
  2  4  1  0
  4  5  1  0
  5  6  2  0
  6  7  1  0
  7  8  2  0
  8  9  1  0
  9 10  1  0
 10 11  2  0
 11 12  1  0
 12 13  1  0
 13 14  2  0
 14 15  1  0
 15 16  1  0
 16 17  1  0
 17 18  1  0
 16 18  1  0
 14 19  1  0
 19 20  1  0
 20 21  2  0
 21 22  1  0
 22 23  1  0
 23 24  3  0
 22 25  2  0
 19 25  1  0
 25 26  1  0
 12 26  2  0
 11 27  1  0
  8 27  1  0
 27 28  2  0
  5 28  1  0
M  END
>  <pIC50>  (44) 
4.85

>  <chembl_id>  (44) 
CHEMBL2062581

>  <canonical_smiles>  (44) 
CC(=O)Nc1ccc2[nH]cc(c3cc(NC4CC4)n5ncc(C#N)c5n3)c2c1

$$$$
CHEMBL2064628
     RDKit          2D

 31 33  0  0  1  0  0  0  0  0999 V2000
    3.8840   -4.5882    0.0000 C   0  0  0  0  0  0  0  0  0  0  0  0
    3.8840   -3.7632    0.0000 N   0  0  0  0  0  0  0  0  0  0  0  0
    3.1695   -3.3507    0.0000 C   0  0  0  0  0  0  0  0  0  0  0  0
    4.5985   -3.3507    0.0000 C   0  0  0  0  0  0  0  0  0  0  0  0
    5.3130   -3.7632    0.0000 C   0  0  0  0  0  0  0  0  0  0  0  0
    6.0274   -3.3507    0.0000 O   0  0  0  0  0  0  0  0  0  0  0  0
    6.7419   -3.7632    0.0000 C   0  0  0  0  0  0  0  0  0  0  0  0
    6.7419   -4.5882    0.0000 O   0  0  0  0  0  0  0  0  0  0  0  0
    7.4564   -3.3507    0.0000 N   0  0  0  0  0  0  0  0  0  0  0  0
    7.5426   -2.5302    0.0000 C   0  0  0  0  0  0  0  0  0  0  0  0
    8.3496   -2.3587    0.0000 C   0  0  0  0  0  0  0  0  0  0  0  0
    8.9016   -1.7456    0.0000 C   0  0  0  0  0  0  0  0  0  0  0  0
    8.7301   -0.9386    0.0000 N   0  0  0  0  0  0  0  0  0  0  0  0
    9.3432   -0.3866    0.0000 C   0  0  0  0  0  0  0  0  0  0  0  0
    9.1716    0.4204    0.0000 O   0  0  0  0  0  0  0  0  0  0  0  0
   10.1278   -0.6415    0.0000 C   0  0  0  0  0  0  0  0  0  0  0  0
   10.9124   -0.8964    0.0000 C   0  0  0  0  0  0  0  0  0  0  0  0
   10.3827    0.1431    0.0000 C   0  0  0  0  0  0  0  0  0  0  0  0
    9.8729   -1.4261    0.0000 C   0  0  0  0  0  0  0  0  0  0  0  0
    9.6553   -2.0811    0.0000 N   0  0  0  0  0  0  0  0  0  0  0  0
    9.5690   -2.9016    0.0000 N   0  0  0  0  0  0  0  0  0  0  0  0
    8.7621   -3.0731    0.0000 C   0  0  0  0  0  0  0  0  0  0  0  0
    8.2100   -3.6862    0.0000 C   0  0  0  0  0  0  0  0  0  0  0  0
    8.7556   -4.3051    0.0000 C   0  0  0  0  0  0  0  0  0  0  0  0
    7.9633   -4.4735    0.0000 C   0  0  0  0  0  0  0  0  0  0  0  0
    5.3130   -4.5882    0.0000 C   0  0  0  0  0  0  0  0  0  0  0  0
    6.0274   -5.0007    0.0000 C   0  0  0  0  0  0  0  0  0  0  0  0
    6.0274   -5.8257    0.0000 C   0  0  0  0  0  0  0  0  0  0  0  0
    5.3130   -6.2382    0.0000 C   0  0  0  0  0  0  0  0  0  0  0  0
    4.5985   -5.8257    0.0000 C   0  0  0  0  0  0  0  0  0  0  0  0
    4.5985   -5.0007    0.0000 C   0  0  0  0  0  0  0  0  0  0  0  0
  1  2  1  0
  2  3  1  0
  2  4  1  0
  5  4  1  1
  5  6  1  0
  6  7  1  0
  7  8  2  0
  7  9  1  0
  9 10  1  0
 10 11  1  0
 11 12  2  0
 12 13  1  0
 13 14  1  0
 14 15  2  0
 14 16  1  0
 16 17  1  0
 16 18  1  0
 16 19  1  0
 12 20  1  0
 20 21  1  0
 21 22  2  0
 11 22  1  0
 22 23  1  0
  9 23  1  0
 23 24  1  0
 23 25  1  0
  5 26  1  0
 26 27  2  0
 27 28  1  0
 28 29  2  0
 29 30  1  0
 30 31  2  0
 26 31  1  0
M  END
>  <pIC50>  (45) 
6.35

>  <chembl_id>  (45) 
CHEMBL2064628

>  <canonical_smiles>  (45) 
CN(C)C[C@@H](OC(=O)N1Cc2c(NC(=O)C(C)(C)C)n[nH]c2C1(C)C)c3ccccc3

$$$$
CHEMBL206659
     RDKit          2D

 28 31  0  0  0  0  0  0  0  0999 V2000
   -0.2934    4.1250    0.0000 C   0  0  0  0  0  0  0  0  0  0  0  0
    0.4210    3.7125    0.0000 S   0  0  0  0  0  0  0  0  0  0  0  0
    0.0085    2.9980    0.0000 O   0  0  0  0  0  0  0  0  0  0  0  0
    0.8335    4.4270    0.0000 O   0  0  0  0  0  0  0  0  0  0  0  0
    1.1355    3.3000    0.0000 C   0  0  0  0  0  0  0  0  0  0  0  0
    1.8500    3.7125    0.0000 C   0  0  0  0  0  0  0  0  0  0  0  0
    2.5645    3.3000    0.0000 C   0  0  0  0  0  0  0  0  0  0  0  0
    2.5645    2.4750    0.0000 C   0  0  0  0  0  0  0  0  0  0  0  0
    3.2789    2.0625    0.0000 N   0  0  0  0  0  0  0  0  0  0  0  0
    3.2789    1.2375    0.0000 C   0  0  0  0  0  0  0  0  0  0  0  0
    3.9934    0.8250    0.0000 C   0  0  0  0  0  0  0  0  0  0  0  0
    3.9934    0.0000    0.0000 C   0  0  0  0  0  0  0  0  0  0  0  0
    4.7079   -0.4125    0.0000 N   0  0  0  0  0  0  0  0  0  0  0  0
    4.7079   -1.2375    0.0000 C   0  0  0  0  0  0  0  0  0  0  0  0
    5.4223   -1.6500    0.0000 C   0  0  0  0  0  0  0  0  0  0  0  0
    5.4223   -2.4750    0.0000 C   0  0  0  0  0  0  0  0  0  0  0  0
    4.7079   -2.8875    0.0000 C   0  0  0  0  0  0  0  0  0  0  0  0
    4.7079   -3.7125    0.0000 N   0  0  0  0  0  0  0  0  0  0  0  0
    3.9934   -2.4750    0.0000 C   0  0  0  0  0  0  0  0  0  0  0  0
    3.9934   -1.6500    0.0000 C   0  0  0  0  0  0  0  0  0  0  0  0
    3.2789   -0.4125    0.0000 N   0  0  0  0  0  0  0  0  0  0  0  0
    2.5645    0.0000    0.0000 C   0  0  0  0  0  0  0  0  0  0  0  0
    1.7798   -0.2549    0.0000 N   0  0  0  0  0  0  0  0  0  0  0  0
    1.2949    0.4125    0.0000 C   0  0  0  0  0  0  0  0  0  0  0  0
    1.7798    1.0799    0.0000 N   0  0  0  0  0  0  0  0  0  0  0  0
    2.5645    0.8250    0.0000 N   0  0  0  0  0  0  0  0  0  0  0  0
    1.8500    2.0625    0.0000 C   0  0  0  0  0  0  0  0  0  0  0  0
    1.1355    2.4750    0.0000 C   0  0  0  0  0  0  0  0  0  0  0  0
  1  2  1  0
  2  3  2  0
  2  4  2  0
  2  5  1  0
  5  6  2  0
  6  7  1  0
  7  8  2  0
  8  9  1  0
  9 10  1  0
 10 11  2  0
 11 12  1  0
 12 13  1  0
 14 13  1  6
 14 15  1  0
 15 16  1  0
 17 16  1  0
 17 18  1  1
 17 19  1  0
 19 20  1  0
 14 20  1  0
 12 21  2  0
 21 22  1  0
 22 23  2  0
 23 24  1  0
 24 25  2  0
 25 26  1  0
 10 26  1  0
 22 26  1  0
  8 27  1  0
 27 28  2  0
  5 28  1  0
M  END
>  <pIC50>  (46) 
6.60

>  <chembl_id>  (46) 
CHEMBL206659

>  <canonical_smiles>  (46) 
CS(=O)(=O)c1ccc(Nc2cc(N[C@@H]3CC[C@@H](N)CC3)nc4ncnn24)cc1

$$$$
CHEMBL209148
     RDKit          2D

 43 46  0  0  0  0  0  0  0  0999 V2000
    7.0380   -1.7116    0.0000 C   0  0  0  0  0  0  0  0  0  0  0  0
    6.3235   -1.2991    0.0000 O   0  0  0  0  0  0  0  0  0  0  0  0
    5.6091   -1.7116    0.0000 C   0  0  0  0  0  0  0  0  0  0  0  0
    5.6091   -2.5366    0.0000 C   0  0  0  0  0  0  0  0  0  0  0  0
    4.8946   -2.9491    0.0000 C   0  0  0  0  0  0  0  0  0  0  0  0
    4.8946   -3.7741    0.0000 C   0  0  0  0  0  0  0  0  0  0  0  0
    4.1801   -2.5366    0.0000 C   0  0  0  0  0  0  0  0  0  0  0  0
    3.4656   -2.9491    0.0000 S   0  0  0  0  0  0  0  0  0  0  0  0
    3.4656   -3.7741    0.0000 C   0  0  0  0  0  0  0  0  0  0  0  0
    4.1331   -4.2590    0.0000 C   0  0  0  0  0  0  0  0  0  0  0  0
    3.8781   -5.0437    0.0000 N   0  0  0  0  0  0  0  0  0  0  0  0
    3.0531   -5.0437    0.0000 C   0  0  0  0  0  0  0  0  0  0  0  0
    2.5682   -5.7111    0.0000 N   0  0  0  0  0  0  0  0  0  0  0  0
    2.9038   -6.4648    0.0000 C   0  0  0  0  0  0  0  0  0  0  0  0
    3.7243   -6.5510    0.0000 O   0  0  0  0  0  0  0  0  0  0  0  0
    2.4189   -7.1322    0.0000 C   0  0  0  0  0  0  0  0  0  0  0  0
    2.7544   -7.8859    0.0000 C   0  0  0  0  0  0  0  0  0  0  0  0
    2.2695   -8.5533    0.0000 C   0  0  0  0  0  0  0  0  0  0  0  0
    1.4490   -8.4671    0.0000 C   0  0  0  0  0  0  0  0  0  0  0  0
    0.9641   -9.1345    0.0000 C   0  0  0  0  0  0  0  0  0  0  0  0
    0.1436   -9.0483    0.0000 N   0  0  0  0  0  0  0  0  0  0  0  0
   -0.3413   -9.7157    0.0000 C   0  0  0  0  0  0  0  0  0  0  0  0
   -0.0058  -10.4694    0.0000 C   0  0  0  0  0  0  0  0  0  0  0  0
   -1.1618   -9.6295    0.0000 C   0  0  0  0  0  0  0  0  0  0  0  0
   -1.9823   -9.5433    0.0000 C   0  0  0  0  0  0  0  0  0  0  0  0
   -1.2480  -10.4500    0.0000 C   0  0  0  0  0  0  0  0  0  0  0  0
   -1.0756   -8.8090    0.0000 C   0  0  0  0  0  0  0  0  0  0  0  0
    1.1135   -7.7134    0.0000 C   0  0  0  0  0  0  0  0  0  0  0  0
    1.5984   -7.0460    0.0000 C   0  0  0  0  0  0  0  0  0  0  0  0
    2.7982   -4.2590    0.0000 S   0  0  0  0  0  0  0  0  0  0  0  0
    4.1801   -1.7116    0.0000 C   0  0  0  0  0  0  0  0  0  0  0  0
    4.8946   -1.2991    0.0000 C   0  0  0  0  0  0  0  0  0  0  0  0
    4.8946   -0.4741    0.0000 C   0  0  0  0  0  0  0  0  0  0  0  0
    4.1801   -0.0616    0.0000 O   0  0  0  0  0  0  0  0  0  0  0  0
    5.6091   -0.0616    0.0000 N   0  0  0  0  0  0  0  0  0  0  0  0
    5.6091    0.7634    0.0000 C   0  0  0  0  0  0  0  0  0  0  0  0
    6.3235    1.1759    0.0000 C   0  0  0  0  0  0  0  0  0  0  0  0
    7.0380    0.7634    0.0000 N   0  0  0  0  0  0  0  0  0  0  0  0
    7.0380   -0.0616    0.0000 C   0  0  0  0  0  0  0  0  0  0  0  0
    6.3235   -0.4741    0.0000 C   0  0  0  0  0  0  0  0  0  0  0  0
    7.7525    1.1759    0.0000 C   0  0  0  0  0  0  0  0  0  0  0  0
    7.7525    2.0009    0.0000 O   0  0  0  0  0  0  0  0  0  0  0  0
    8.4669    0.7634    0.0000 C   0  0  0  0  0  0  0  0  0  0  0  0
  1  2  1  0
  2  3  1  0
  3  4  2  0
  4  5  1  0
  5  6  1  0
  5  7  2  0
  7  8  1  0
  8  9  1  0
  9 10  2  0
 10 11  1  0
 11 12  2  0
 12 13  1  0
 13 14  1  0
 14 15  2  0
 14 16  1  0
 16 17  2  0
 17 18  1  0
 18 19  2  0
 19 20  1  0
 20 21  1  0
 21 22  1  0
 22 23  1  0
 22 24  1  0
 24 25  1  0
 24 26  1  0
 24 27  1  0
 19 28  1  0
 28 29  2  0
 16 29  1  0
 12 30  1  0
  9 30  1  0
  7 31  1  0
 31 32  2  0
  3 32  1  0
 32 33  1  0
 33 34  2  0
 33 35  1  0
 35 36  1  0
 36 37  1  0
 37 38  1  0
 38 39  1  0
 39 40  1  0
 35 40  1  0
 38 41  1  0
 41 42  2  0
 41 43  1  0
M  END
>  <pIC50>  (47) 
4.54

>  <chembl_id>  (47) 
CHEMBL209148

>  <canonical_smiles>  (47) 
COc1cc(C)c(Sc2cnc(NC(=O)c3ccc(CNC(C)C(C)(C)C)cc3)s2)cc1C(=O)N4CCN(CC4)C(=O)C

$$$$
CHEMBL209280
     RDKit          2D

 34 36  0  0  0  0  0  0  0  0999 V2000
    2.0367   -0.4741    0.0000 N   0  0  0  0  0  0  0  0  0  0  0  0
    2.0367   -1.2991    0.0000 C   0  0  0  0  0  0  0  0  0  0  0  0
    1.3693   -1.7840    0.0000 N   0  0  0  0  0  0  0  0  0  0  0  0
    1.6242   -2.5687    0.0000 C   0  0  0  0  0  0  0  0  0  0  0  0
    1.1393   -3.2361    0.0000 N   0  0  0  0  0  0  0  0  0  0  0  0
    0.3188   -3.1499    0.0000 C   0  0  0  0  0  0  0  0  0  0  0  0
   -0.1661   -3.8173    0.0000 C   0  0  0  0  0  0  0  0  0  0  0  0
   -0.9866   -3.7311    0.0000 C   0  0  0  0  0  0  0  0  0  0  0  0
   -1.3222   -2.9774    0.0000 C   0  0  0  0  0  0  0  0  0  0  0  0
   -0.8372   -2.3099    0.0000 C   0  0  0  0  0  0  0  0  0  0  0  0
   -0.0168   -2.3962    0.0000 C   0  0  0  0  0  0  0  0  0  0  0  0
   -2.1426   -2.8911    0.0000 S   0  0  0  0  0  0  0  0  0  0  0  0
   -2.2289   -3.7116    0.0000 O   0  0  0  0  0  0  0  0  0  0  0  0
   -2.0564   -2.0707    0.0000 O   0  0  0  0  0  0  0  0  0  0  0  0
   -2.9631   -2.8049    0.0000 N   0  0  0  0  0  0  0  0  0  0  0  0
   -3.2987   -2.0512    0.0000 C   0  0  0  0  0  0  0  0  0  0  0  0
   -2.8138   -1.3838    0.0000 O   0  0  0  0  0  0  0  0  0  0  0  0
   -4.1192   -1.9650    0.0000 C   0  0  0  0  0  0  0  0  0  0  0  0
   -4.4547   -1.2113    0.0000 C   0  0  0  0  0  0  0  0  0  0  0  0
   -5.2752   -1.1251    0.0000 C   0  0  0  0  0  0  0  0  0  0  0  0
   -5.6108   -0.3714    0.0000 O   0  0  0  0  0  0  0  0  0  0  0  0
   -5.7601   -1.7925    0.0000 O   0  0  0  0  0  0  0  0  0  0  0  0
    2.4492   -2.5687    0.0000 N   0  0  0  0  0  0  0  0  0  0  0  0
    2.7041   -1.7840    0.0000 N   0  0  0  0  0  0  0  0  0  0  0  0
    3.4888   -1.5291    0.0000 C   0  0  0  0  0  0  0  0  0  0  0  0
    3.6603   -0.7221    0.0000 O   0  0  0  0  0  0  0  0  0  0  0  0
    4.1019   -2.0811    0.0000 C   0  0  0  0  0  0  0  0  0  0  0  0
    4.8865   -1.8262    0.0000 C   0  0  0  0  0  0  0  0  0  0  0  0
    5.0580   -1.0192    0.0000 F   0  0  0  0  0  0  0  0  0  0  0  0
    5.4996   -2.3782    0.0000 C   0  0  0  0  0  0  0  0  0  0  0  0
    5.3281   -3.1852    0.0000 C   0  0  0  0  0  0  0  0  0  0  0  0
    4.5434   -3.4401    0.0000 C   0  0  0  0  0  0  0  0  0  0  0  0
    3.9303   -2.8881    0.0000 C   0  0  0  0  0  0  0  0  0  0  0  0
    3.1457   -3.1430    0.0000 F   0  0  0  0  0  0  0  0  0  0  0  0
  1  2  1  0
  2  3  2  0
  3  4  1  0
  4  5  1  0
  5  6  1  0
  6  7  2  0
  7  8  1  0
  8  9  2  0
  9 10  1  0
 10 11  2  0
  6 11  1  0
  9 12  1  0
 12 13  2  0
 12 14  2  0
 12 15  1  0
 15 16  1  0
 16 17  2  0
 16 18  1  0
 18 19  1  0
 19 20  1  0
 20 21  2  0
 20 22  1  0
  4 23  2  0
 23 24  1  0
  2 24  1  0
 24 25  1  0
 25 26  2  0
 25 27  1  0
 27 28  2  0
 28 29  1  0
 28 30  1  0
 30 31  2  0
 31 32  1  0
 32 33  2  0
 27 33  1  0
 33 34  1  0
M  END
>  <pIC50>  (48) 
7.15

>  <chembl_id>  (48) 
CHEMBL209280

>  <canonical_smiles>  (48) 
Nc1nc(Nc2ccc(cc2)S(=O)(=O)NC(=O)CCC(=O)O)nn1C(=O)c3c(F)cccc3F

$$$$
CHEMBL210540
     RDKit          2D

 34 38  0  0  0  0  0  0  0  0999 V2000
    7.0380    5.5902    0.0000 C   0  0  0  0  0  0  0  0  0  0  0  0
    7.0380    4.7652    0.0000 N   0  0  0  0  0  0  0  0  0  0  0  0
    7.7525    4.3527    0.0000 C   0  0  0  0  0  0  0  0  0  0  0  0
    7.7525    3.5277    0.0000 C   0  0  0  0  0  0  0  0  0  0  0  0
    7.0380    3.1152    0.0000 N   0  0  0  0  0  0  0  0  0  0  0  0
    7.0380    2.2902    0.0000 C   0  0  0  0  0  0  0  0  0  0  0  0
    6.3235    1.8777    0.0000 C   0  0  0  0  0  0  0  0  0  0  0  0
    6.3235    1.0527    0.0000 C   0  0  0  0  0  0  0  0  0  0  0  0
    5.6091    0.6402    0.0000 N   0  0  0  0  0  0  0  0  0  0  0  0
    4.8946    1.0527    0.0000 C   0  0  0  0  0  0  0  0  0  0  0  0
    4.1801    0.6402    0.0000 N   0  0  0  0  0  0  0  0  0  0  0  0
    4.1801   -0.1848    0.0000 C   0  0  0  0  0  0  0  0  0  0  0  0
    4.8476   -0.6697    0.0000 N   0  0  0  0  0  0  0  0  0  0  0  0
    4.5926   -1.4544    0.0000 C   0  0  0  0  0  0  0  0  0  0  0  0
    3.7676   -1.4544    0.0000 C   0  0  0  0  0  0  0  0  0  0  0  0
    3.5127   -0.6697    0.0000 S   0  0  0  0  0  0  0  0  0  0  0  0
    3.2827   -2.1218    0.0000 C   0  0  0  0  0  0  0  0  0  0  0  0
    3.6183   -2.8755    0.0000 C   0  0  0  0  0  0  0  0  0  0  0  0
    3.1333   -3.5429    0.0000 C   0  0  0  0  0  0  0  0  0  0  0  0
    3.4689   -4.2966    0.0000 C   0  0  0  0  0  0  0  0  0  0  0  0
    2.3129   -3.4567    0.0000 N   0  0  0  0  0  0  0  0  0  0  0  0
    1.9773   -2.7030    0.0000 C   0  0  0  0  0  0  0  0  0  0  0  0
    1.1568   -2.6168    0.0000 O   0  0  0  0  0  0  0  0  0  0  0  0
    0.8213   -1.8631    0.0000 C   0  0  0  0  0  0  0  0  0  0  0  0
    0.0008   -1.7769    0.0000 C   0  0  0  0  0  0  0  0  0  0  0  0
   -0.3348   -1.0232    0.0000 C   0  0  0  0  0  0  0  0  0  0  0  0
    0.1501   -0.3557    0.0000 C   0  0  0  0  0  0  0  0  0  0  0  0
    0.9706   -0.4420    0.0000 C   0  0  0  0  0  0  0  0  0  0  0  0
    1.3062   -1.1957    0.0000 C   0  0  0  0  0  0  0  0  0  0  0  0
    2.4622   -2.0356    0.0000 N   0  0  0  0  0  0  0  0  0  0  0  0
    4.8946    1.8777    0.0000 C   0  0  0  0  0  0  0  0  0  0  0  0
    5.6091    2.2902    0.0000 N   0  0  0  0  0  0  0  0  0  0  0  0
    6.3235    3.5277    0.0000 C   0  0  0  0  0  0  0  0  0  0  0  0
    6.3235    4.3527    0.0000 C   0  0  0  0  0  0  0  0  0  0  0  0
  1  2  1  0
  2  3  1  0
  3  4  1  0
  4  5  1  0
  5  6  1  0
  6  7  1  0
  7  8  2  0
  8  9  1  0
  9 10  2  0
 10 11  1  0
 11 12  1  0
 12 13  2  0
 13 14  1  0
 14 15  2  0
 15 16  1  0
 12 16  1  0
 15 17  1  0
 17 18  2  0
 18 19  1  0
 19 20  1  0
 19 21  2  0
 21 22  1  0
 22 23  1  0
 23 24  1  0
 24 25  1  0
 25 26  1  0
 26 27  1  0
 27 28  1  0
 28 29  1  0
 24 29  1  0
 22 30  2  0
 17 30  1  0
 10 31  1  0
 31 32  2  0
  7 32  1  0
  5 33  1  0
 33 34  1  0
  2 34  1  0
M  END
>  <pIC50>  (49) 
5.77

>  <chembl_id>  (49) 
CHEMBL210540

>  <canonical_smiles>  (49) 
CN1CCN(Cc2cnc(Nc3ncc(s3)c4cc(C)nc(OC5CCCCC5)n4)cn2)CC1

$$$$
CHEMBL210581
     RDKit          2D

 35 37  0  0  0  0  0  0  0  0999 V2000
    9.1815   -7.3346    0.0000 C   0  0  0  0  0  0  0  0  0  0  0  0
    9.8960   -6.9221    0.0000 O   0  0  0  0  0  0  0  0  0  0  0  0
   10.6104   -7.3346    0.0000 C   0  0  0  0  0  0  0  0  0  0  0  0
   11.3249   -6.9221    0.0000 C   0  0  0  0  0  0  0  0  0  0  0  0
   12.0394   -7.3346    0.0000 O   0  0  0  0  0  0  0  0  0  0  0  0
   12.7538   -6.9221    0.0000 C   0  0  0  0  0  0  0  0  0  0  0  0
   13.4683   -7.3346    0.0000 C   0  0  0  0  0  0  0  0  0  0  0  0
   13.4683   -8.1596    0.0000 O   0  0  0  0  0  0  0  0  0  0  0  0
   14.1828   -6.9221    0.0000 N   0  0  0  0  0  0  0  0  0  0  0  0
   14.8973   -7.3346    0.0000 S   0  0  0  0  0  0  0  0  0  0  0  0
   14.4848   -8.0491    0.0000 O   0  0  0  0  0  0  0  0  0  0  0  0
   15.3098   -6.6201    0.0000 O   0  0  0  0  0  0  0  0  0  0  0  0
   15.6117   -7.7471    0.0000 C   0  0  0  0  0  0  0  0  0  0  0  0
   16.3262   -7.3346    0.0000 C   0  0  0  0  0  0  0  0  0  0  0  0
   17.0407   -7.7471    0.0000 C   0  0  0  0  0  0  0  0  0  0  0  0
   17.0407   -8.5721    0.0000 C   0  0  0  0  0  0  0  0  0  0  0  0
   17.7551   -8.9846    0.0000 N   0  0  0  0  0  0  0  0  0  0  0  0
   18.4696   -8.5721    0.0000 C   0  0  0  0  0  0  0  0  0  0  0  0
   18.5558   -7.7516    0.0000 N   0  0  0  0  0  0  0  0  0  0  0  0
   19.3628   -7.5801    0.0000 C   0  0  0  0  0  0  0  0  0  0  0  0
   19.6984   -6.8264    0.0000 N   0  0  0  0  0  0  0  0  0  0  0  0
   19.7753   -8.2946    0.0000 N   0  0  0  0  0  0  0  0  0  0  0  0
   19.2233   -8.9077    0.0000 N   0  0  0  0  0  0  0  0  0  0  0  0
   20.5958   -8.3808    0.0000 C   0  0  0  0  0  0  0  0  0  0  0  0
   21.0807   -7.7134    0.0000 O   0  0  0  0  0  0  0  0  0  0  0  0
   20.9314   -9.1345    0.0000 C   0  0  0  0  0  0  0  0  0  0  0  0
   21.7518   -9.2207    0.0000 C   0  0  0  0  0  0  0  0  0  0  0  0
   22.2368   -8.5533    0.0000 F   0  0  0  0  0  0  0  0  0  0  0  0
   22.0874   -9.9744    0.0000 C   0  0  0  0  0  0  0  0  0  0  0  0
   21.6025  -10.6418    0.0000 C   0  0  0  0  0  0  0  0  0  0  0  0
   20.7820  -10.5556    0.0000 C   0  0  0  0  0  0  0  0  0  0  0  0
   20.4464   -9.8019    0.0000 C   0  0  0  0  0  0  0  0  0  0  0  0
   19.6259   -9.7157    0.0000 F   0  0  0  0  0  0  0  0  0  0  0  0
   16.3262   -8.9846    0.0000 C   0  0  0  0  0  0  0  0  0  0  0  0
   15.6117   -8.5721    0.0000 C   0  0  0  0  0  0  0  0  0  0  0  0
  1  2  1  0
  2  3  1  0
  3  4  1  0
  4  5  1  0
  5  6  1  0
  6  7  1  0
  7  8  2  0
  7  9  1  0
  9 10  1  0
 10 11  2  0
 10 12  2  0
 10 13  1  0
 13 14  2  0
 14 15  1  0
 15 16  2  0
 16 17  1  0
 17 18  1  0
 18 19  1  0
 19 20  2  0
 20 21  1  0
 20 22  1  0
 22 23  1  0
 18 23  2  0
 22 24  1  0
 24 25  2  0
 24 26  1  0
 26 27  2  0
 27 28  1  0
 27 29  1  0
 29 30  2  0
 30 31  1  0
 31 32  2  0
 26 32  1  0
 32 33  1  0
 16 34  1  0
 34 35  2  0
 13 35  1  0
M  END
>  <pIC50>  (50) 
6.61

>  <chembl_id>  (50) 
CHEMBL210581

>  <canonical_smiles>  (50) 
COCCOCC(=O)NS(=O)(=O)c1ccc(Nc2nc(N)n(n2)C(=O)c3c(F)cccc3F)cc1

$$$$
CHEMBL210765
     RDKit          2D

 38 41  0  0  0  0  0  0  0  0999 V2000
    9.1814    5.3009    0.0000 C   0  0  0  0  0  0  0  0  0  0  0  0
    8.4669    4.8884    0.0000 N   0  0  0  0  0  0  0  0  0  0  0  0
    8.4669    4.0634    0.0000 C   0  0  0  0  0  0  0  0  0  0  0  0
    7.7525    3.6509    0.0000 C   0  0  0  0  0  0  0  0  0  0  0  0
    7.0380    4.0634    0.0000 N   0  0  0  0  0  0  0  0  0  0  0  0
    6.3235    3.6509    0.0000 C   0  0  0  0  0  0  0  0  0  0  0  0
    6.3235    2.8259    0.0000 C   0  0  0  0  0  0  0  0  0  0  0  0
    5.6091    2.4134    0.0000 C   0  0  0  0  0  0  0  0  0  0  0  0
    4.8946    2.8259    0.0000 O   0  0  0  0  0  0  0  0  0  0  0  0
    5.6091    1.5884    0.0000 N   0  0  0  0  0  0  0  0  0  0  0  0
    4.8946    1.1759    0.0000 S   0  0  0  0  0  0  0  0  0  0  0  0
    4.4821    1.8904    0.0000 O   0  0  0  0  0  0  0  0  0  0  0  0
    5.3071    0.4614    0.0000 O   0  0  0  0  0  0  0  0  0  0  0  0
    4.1801    0.7634    0.0000 C   0  0  0  0  0  0  0  0  0  0  0  0
    4.1801   -0.0616    0.0000 C   0  0  0  0  0  0  0  0  0  0  0  0
    3.4656   -0.4741    0.0000 C   0  0  0  0  0  0  0  0  0  0  0  0
    2.7512   -0.0616    0.0000 C   0  0  0  0  0  0  0  0  0  0  0  0
    2.0367   -0.4741    0.0000 N   0  0  0  0  0  0  0  0  0  0  0  0
    2.0367   -1.2991    0.0000 C   0  0  0  0  0  0  0  0  0  0  0  0
    2.7041   -1.7840    0.0000 N   0  0  0  0  0  0  0  0  0  0  0  0
    2.4492   -2.5687    0.0000 C   0  0  0  0  0  0  0  0  0  0  0  0
    2.9341   -3.2361    0.0000 N   0  0  0  0  0  0  0  0  0  0  0  0
    1.6242   -2.5687    0.0000 N   0  0  0  0  0  0  0  0  0  0  0  0
    1.3693   -1.7840    0.0000 N   0  0  0  0  0  0  0  0  0  0  0  0
    1.1393   -3.2361    0.0000 C   0  0  0  0  0  0  0  0  0  0  0  0
    1.4748   -3.9898    0.0000 O   0  0  0  0  0  0  0  0  0  0  0  0
    0.3188   -3.1499    0.0000 C   0  0  0  0  0  0  0  0  0  0  0  0
   -0.1661   -3.8173    0.0000 C   0  0  0  0  0  0  0  0  0  0  0  0
    0.1694   -4.5710    0.0000 F   0  0  0  0  0  0  0  0  0  0  0  0
   -0.9866   -3.7311    0.0000 C   0  0  0  0  0  0  0  0  0  0  0  0
   -1.3222   -2.9774    0.0000 C   0  0  0  0  0  0  0  0  0  0  0  0
   -0.8372   -2.3099    0.0000 C   0  0  0  0  0  0  0  0  0  0  0  0
   -0.0168   -2.3962    0.0000 C   0  0  0  0  0  0  0  0  0  0  0  0
    0.4682   -1.7287    0.0000 F   0  0  0  0  0  0  0  0  0  0  0  0
    2.7512    0.7634    0.0000 C   0  0  0  0  0  0  0  0  0  0  0  0
    3.4656    1.1759    0.0000 C   0  0  0  0  0  0  0  0  0  0  0  0
    7.0380    4.8884    0.0000 C   0  0  0  0  0  0  0  0  0  0  0  0
    7.7525    5.3009    0.0000 C   0  0  0  0  0  0  0  0  0  0  0  0
  1  2  1  0
  2  3  1  0
  3  4  1  0
  4  5  1  0
  5  6  1  0
  6  7  1  0
  7  8  1  0
  8  9  2  0
  8 10  1  0
 10 11  1  0
 11 12  2  0
 11 13  2  0
 11 14  1  0
 14 15  2  0
 15 16  1  0
 16 17  2  0
 17 18  1  0
 18 19  1  0
 19 20  1  0
 20 21  2  0
 21 22  1  0
 21 23  1  0
 23 24  1  0
 19 24  2  0
 23 25  1  0
 25 26  2  0
 25 27  1  0
 27 28  2  0
 28 29  1  0
 28 30  1  0
 30 31  2  0
 31 32  1  0
 32 33  2  0
 27 33  1  0
 33 34  1  0
 17 35  1  0
 35 36  2  0
 14 36  1  0
  5 37  1  0
 37 38  1  0
  2 38  1  0
M  END
>  <pIC50>  (51) 
6.58

>  <chembl_id>  (51) 
CHEMBL210765

>  <canonical_smiles>  (51) 
CN1CCN(CCC(=O)NS(=O)(=O)c2ccc(Nc3nc(N)n(n3)C(=O)c4c(F)cccc4F)cc2)CC1

$$$$
CHEMBL2113092
     RDKit          2D

 33 35  0  0  0  0  0  0  0  0999 V2000
    2.1434   -0.4125    0.0000 C   0  0  0  0  0  0  0  0  0  0  0  0
    2.8579   -0.8250    0.0000 C   0  0  0  0  0  0  0  0  0  0  0  0
    3.5724   -0.4125    0.0000 C   0  0  0  0  0  0  0  0  0  0  0  0
    4.2868   -0.8250    0.0000 C   0  0  0  0  0  0  0  0  0  0  0  0
    5.0013   -0.4125    0.0000 O   0  0  0  0  0  0  0  0  0  0  0  0
    5.0013    0.4125    0.0000 C   0  0  0  0  0  0  0  0  0  0  0  0
    4.2868    0.8250    0.0000 C   0  0  0  0  0  0  0  0  0  0  0  0
    4.2868    1.6500    0.0000 C   0  0  0  0  0  0  0  0  0  0  0  0
    3.5724    2.0625    0.0000 N   0  0  0  0  0  0  0  0  0  0  0  0
    3.5724    2.8875    0.0000 C   0  0  0  0  0  0  0  0  0  0  0  0
    2.8579    3.3000    0.0000 C   0  0  0  0  0  0  0  0  0  0  0  0
    2.8579    4.1250    0.0000 C   0  0  0  0  0  0  0  0  0  0  0  0
    3.5724    4.5375    0.0000 C   0  0  0  0  0  0  0  0  0  0  0  0
    4.2868    4.1250    0.0000 C   0  0  0  0  0  0  0  0  0  0  0  0
    4.2868    3.3000    0.0000 C   0  0  0  0  0  0  0  0  0  0  0  0
    3.5724    5.3625    0.0000 S   0  0  0  0  0  0  0  0  0  0  0  0
    3.5724    6.1875    0.0000 O   0  0  0  0  0  0  0  0  0  0  0  0
    2.7474    5.3625    0.0000 O   0  0  0  0  0  0  0  0  0  0  0  0
    4.3974    5.3625    0.0000 N   0  0  0  0  0  0  0  0  0  0  0  0
    5.0013    2.0625    0.0000 N   0  0  0  0  0  0  0  0  0  0  0  0
    5.7158    1.6500    0.0000 C   0  0  0  0  0  0  0  0  0  0  0  0
    6.4302    2.0625    0.0000 N   0  0  0  0  0  0  0  0  0  0  0  0
    5.7158    0.8250    0.0000 C   0  0  0  0  0  0  0  0  0  0  0  0
    6.4302    0.4125    0.0000 C   0  0  0  0  0  0  0  0  0  0  0  0
    7.1447    0.8250    0.0000 O   0  0  0  0  0  0  0  0  0  0  0  0
    6.4302   -0.4125    0.0000 C   0  0  0  0  0  0  0  0  0  0  0  0
    7.1447   -0.8250    0.0000 C   0  0  0  0  0  0  0  0  0  0  0  0
    7.8592   -0.4125    0.0000 F   0  0  0  0  0  0  0  0  0  0  0  0
    7.1447   -1.6500    0.0000 C   0  0  0  0  0  0  0  0  0  0  0  0
    6.4302   -2.0625    0.0000 C   0  0  0  0  0  0  0  0  0  0  0  0
    5.7158   -1.6500    0.0000 C   0  0  0  0  0  0  0  0  0  0  0  0
    5.7158   -0.8250    0.0000 C   0  0  0  0  0  0  0  0  0  0  0  0
    4.8953   -0.9112    0.0000 F   0  0  0  0  0  0  0  0  0  0  0  0
  1  2  1  0
  2  3  1  0
  3  4  1  0
  4  5  1  0
  5  6  1  0
  6  7  2  0
  7  8  1  0
  8  9  1  0
  9 10  1  0
 10 11  2  0
 11 12  1  0
 12 13  2  0
 13 14  1  0
 14 15  2  0
 10 15  1  0
 13 16  1  0
 16 17  2  0
 16 18  2  0
 16 19  1  0
  8 20  2  0
 20 21  1  0
 21 22  1  0
 21 23  2  0
  6 23  1  0
 23 24  1  0
 24 25  2  0
 24 26  1  0
 26 27  2  0
 27 28  1  0
 27 29  1  0
 29 30  2  0
 30 31  1  0
 31 32  2  0
 26 32  1  0
 32 33  1  0
M  END
>  <pIC50>  (52) 
7.08

>  <chembl_id>  (52) 
CHEMBL2113092

>  <canonical_smiles>  (52) 
CCCCOc1cc(Nc2ccc(cc2)S(=O)(=O)N)nc(N)c1C(=O)c3c(F)cccc3F

$$$$
CHEMBL212049
     RDKit          2D

 26 29  0  0  0  0  0  0  0  0999 V2000
    0.6078   -0.4741    0.0000 C   0  0  0  0  0  0  0  0  0  0  0  0
    1.3222   -0.0616    0.0000 C   0  0  0  0  0  0  0  0  0  0  0  0
    1.3222    0.7634    0.0000 C   0  0  0  0  0  0  0  0  0  0  0  0
    2.0367    1.1759    0.0000 N   0  0  0  0  0  0  0  0  0  0  0  0
    2.7512    0.7634    0.0000 C   0  0  0  0  0  0  0  0  0  0  0  0
    3.4656    1.1759    0.0000 O   0  0  0  0  0  0  0  0  0  0  0  0
    3.4656    2.0009    0.0000 C   0  0  0  0  0  0  0  0  0  0  0  0
    2.7512    2.4134    0.0000 C   0  0  0  0  0  0  0  0  0  0  0  0
    2.7512    3.2384    0.0000 C   0  0  0  0  0  0  0  0  0  0  0  0
    3.4656    3.6509    0.0000 C   0  0  0  0  0  0  0  0  0  0  0  0
    4.1801    3.2384    0.0000 C   0  0  0  0  0  0  0  0  0  0  0  0
    4.1801    2.4134    0.0000 C   0  0  0  0  0  0  0  0  0  0  0  0
    2.7512   -0.0616    0.0000 N   0  0  0  0  0  0  0  0  0  0  0  0
    2.0367   -0.4741    0.0000 C   0  0  0  0  0  0  0  0  0  0  0  0
    2.0367   -1.2991    0.0000 C   0  0  0  0  0  0  0  0  0  0  0  0
    2.7041   -1.7840    0.0000 C   0  0  0  0  0  0  0  0  0  0  0  0
    2.4492   -2.5687    0.0000 N   0  0  0  0  0  0  0  0  0  0  0  0
    1.6242   -2.5687    0.0000 C   0  0  0  0  0  0  0  0  0  0  0  0
    1.1393   -3.2361    0.0000 N   0  0  0  0  0  0  0  0  0  0  0  0
    0.3188   -3.1499    0.0000 C   0  0  0  0  0  0  0  0  0  0  0  0
   -0.1661   -3.8173    0.0000 C   0  0  0  0  0  0  0  0  0  0  0  0
   -0.9866   -3.7311    0.0000 C   0  0  0  0  0  0  0  0  0  0  0  0
   -1.3222   -2.9774    0.0000 C   0  0  0  0  0  0  0  0  0  0  0  0
   -0.8372   -2.3099    0.0000 C   0  0  0  0  0  0  0  0  0  0  0  0
   -0.0168   -2.3962    0.0000 N   0  0  0  0  0  0  0  0  0  0  0  0
    1.3693   -1.7840    0.0000 S   0  0  0  0  0  0  0  0  0  0  0  0
  1  2  1  0
  2  3  2  0
  3  4  1  0
  4  5  2  0
  5  6  1  0
  6  7  1  0
  7  8  1  0
  8  9  1  0
  9 10  1  0
 10 11  1  0
 11 12  1  0
  7 12  1  0
  5 13  1  0
 13 14  2  0
  2 14  1  0
 14 15  1  0
 15 16  2  0
 16 17  1  0
 17 18  2  0
 18 19  1  0
 19 20  1  0
 20 21  2  0
 21 22  1  0
 22 23  2  0
 23 24  1  0
 24 25  2  0
 20 25  1  0
 18 26  1  0
 15 26  1  0
M  END
>  <pIC50>  (53) 
6.57

>  <chembl_id>  (53) 
CHEMBL212049

>  <canonical_smiles>  (53) 
Cc1cnc(OC2CCCCC2)nc1c3cnc(Nc4ccccn4)s3

$$$$
CHEMBL212264
     RDKit          2D

 33 35  0  0  1  0  0  0  0  0999 V2000
    7.0380    2.4134    0.0000 N   0  0  0  0  0  0  0  0  0  0  0  0
    6.3235    2.8259    0.0000 C   0  0  0  0  0  0  0  0  0  0  0  0
    6.3235    3.6509    0.0000 C   0  0  0  0  0  0  0  0  0  0  0  0
    7.0380    4.0634    0.0000 O   0  0  0  0  0  0  0  0  0  0  0  0
    5.6091    2.4134    0.0000 C   0  0  0  0  0  0  0  0  0  0  0  0
    4.8946    2.8259    0.0000 O   0  0  0  0  0  0  0  0  0  0  0  0
    5.6091    1.5884    0.0000 N   0  0  0  0  0  0  0  0  0  0  0  0
    4.8946    1.1759    0.0000 S   0  0  0  0  0  0  0  0  0  0  0  0
    4.4821    1.8904    0.0000 O   0  0  0  0  0  0  0  0  0  0  0  0
    5.3071    0.4614    0.0000 O   0  0  0  0  0  0  0  0  0  0  0  0
    4.1801    0.7634    0.0000 C   0  0  0  0  0  0  0  0  0  0  0  0
    4.1801   -0.0616    0.0000 C   0  0  0  0  0  0  0  0  0  0  0  0
    3.4656   -0.4741    0.0000 C   0  0  0  0  0  0  0  0  0  0  0  0
    2.7512   -0.0616    0.0000 C   0  0  0  0  0  0  0  0  0  0  0  0
    2.0367   -0.4741    0.0000 N   0  0  0  0  0  0  0  0  0  0  0  0
    2.0367   -1.2991    0.0000 C   0  0  0  0  0  0  0  0  0  0  0  0
    2.7041   -1.7840    0.0000 N   0  0  0  0  0  0  0  0  0  0  0  0
    2.4492   -2.5687    0.0000 C   0  0  0  0  0  0  0  0  0  0  0  0
    2.9341   -3.2361    0.0000 N   0  0  0  0  0  0  0  0  0  0  0  0
    1.6242   -2.5687    0.0000 N   0  0  0  0  0  0  0  0  0  0  0  0
    1.3693   -1.7840    0.0000 N   0  0  0  0  0  0  0  0  0  0  0  0
    1.1393   -3.2361    0.0000 C   0  0  0  0  0  0  0  0  0  0  0  0
    1.4748   -3.9898    0.0000 O   0  0  0  0  0  0  0  0  0  0  0  0
    0.3188   -3.1499    0.0000 C   0  0  0  0  0  0  0  0  0  0  0  0
   -0.1661   -3.8173    0.0000 C   0  0  0  0  0  0  0  0  0  0  0  0
    0.1694   -4.5710    0.0000 F   0  0  0  0  0  0  0  0  0  0  0  0
   -0.9866   -3.7311    0.0000 C   0  0  0  0  0  0  0  0  0  0  0  0
   -1.3222   -2.9774    0.0000 C   0  0  0  0  0  0  0  0  0  0  0  0
   -0.8372   -2.3099    0.0000 C   0  0  0  0  0  0  0  0  0  0  0  0
   -0.0168   -2.3962    0.0000 C   0  0  0  0  0  0  0  0  0  0  0  0
    0.4682   -1.7287    0.0000 F   0  0  0  0  0  0  0  0  0  0  0  0
    2.7512    0.7634    0.0000 C   0  0  0  0  0  0  0  0  0  0  0  0
    3.4656    1.1759    0.0000 C   0  0  0  0  0  0  0  0  0  0  0  0
  2  1  1  1
  2  3  1  0
  3  4  1  0
  2  5  1  0
  5  6  2  0
  5  7  1  0
  7  8  1  0
  8  9  2  0
  8 10  2  0
  8 11  1  0
 11 12  2  0
 12 13  1  0
 13 14  2  0
 14 15  1  0
 15 16  1  0
 16 17  1  0
 17 18  2  0
 18 19  1  0
 18 20  1  0
 20 21  1  0
 16 21  2  0
 20 22  1  0
 22 23  2  0
 22 24  1  0
 24 25  2  0
 25 26  1  0
 25 27  1  0
 27 28  2  0
 28 29  1  0
 29 30  2  0
 24 30  1  0
 30 31  1  0
 14 32  1  0
 32 33  2  0
 11 33  1  0
M  END
>  <pIC50>  (54) 
6.85

>  <chembl_id>  (54) 
CHEMBL212264

>  <canonical_smiles>  (54) 
N[C@H](CO)C(=O)NS(=O)(=O)c1ccc(Nc2nc(N)n(n2)C(=O)c3c(F)cccc3F)cc1

$$$$
CHEMBL213805
     RDKit          2D

 27 30  0  0  0  0  0  0  0  0999 V2000
    0.3739   -3.7192    0.0000 C   0  0  0  0  0  0  0  0  0  0  0  0
    1.1809   -3.5477    0.0000 N   0  0  0  0  0  0  0  0  0  0  0  0
    1.4358   -2.7631    0.0000 C   0  0  0  0  0  0  0  0  0  0  0  0
    0.8838   -2.1500    0.0000 C   0  0  0  0  0  0  0  0  0  0  0  0
    1.1387   -1.3654    0.0000 C   0  0  0  0  0  0  0  0  0  0  0  0
    0.6538   -0.6979    0.0000 C   0  0  0  0  0  0  0  0  0  0  0  0
    1.1387   -0.0305    0.0000 N   0  0  0  0  0  0  0  0  0  0  0  0
    1.9233   -0.2854    0.0000 C   0  0  0  0  0  0  0  0  0  0  0  0
    2.6378    0.1271    0.0000 C   0  0  0  0  0  0  0  0  0  0  0  0
    3.3523   -0.2854    0.0000 C   0  0  0  0  0  0  0  0  0  0  0  0
    3.3523   -1.1104    0.0000 C   0  0  0  0  0  0  0  0  0  0  0  0
    2.6378   -1.5229    0.0000 C   0  0  0  0  0  0  0  0  0  0  0  0
    1.9233   -1.1104    0.0000 C   0  0  0  0  0  0  0  0  0  0  0  0
    1.7329   -4.1608    0.0000 C   0  0  0  0  0  0  0  0  0  0  0  0
    2.5399   -3.9893    0.0000 O   0  0  0  0  0  0  0  0  0  0  0  0
    1.4780   -4.9454    0.0000 C   0  0  0  0  0  0  0  0  0  0  0  0
    2.0300   -5.5585    0.0000 C   0  0  0  0  0  0  0  0  0  0  0  0
    1.7751   -6.3432    0.0000 C   0  0  0  0  0  0  0  0  0  0  0  0
    0.9681   -6.5147    0.0000 C   0  0  0  0  0  0  0  0  0  0  0  0
    0.4161   -5.9016    0.0000 C   0  0  0  0  0  0  0  0  0  0  0  0
    0.6710   -5.1170    0.0000 C   0  0  0  0  0  0  0  0  0  0  0  0
    0.7132   -7.2993    0.0000 C   0  0  0  0  0  0  0  0  0  0  0  0
    1.2652   -7.9124    0.0000 C   0  0  0  0  0  0  0  0  0  0  0  0
    1.0102   -8.6970    0.0000 C   0  0  0  0  0  0  0  0  0  0  0  0
    0.2033   -8.8685    0.0000 C   0  0  0  0  0  0  0  0  0  0  0  0
   -0.3488   -8.2554    0.0000 C   0  0  0  0  0  0  0  0  0  0  0  0
   -0.0938   -7.4708    0.0000 C   0  0  0  0  0  0  0  0  0  0  0  0
  1  2  1  0
  2  3  1  0
  3  4  1  0
  4  5  1  0
  5  6  2  0
  6  7  1  0
  7  8  1  0
  8  9  2  0
  9 10  1  0
 10 11  2  0
 11 12  1  0
 12 13  2  0
  5 13  1  0
  8 13  1  0
  2 14  1  0
 14 15  2  0
 14 16  1  0
 16 17  2  0
 17 18  1  0
 18 19  2  0
 19 20  1  0
 20 21  2  0
 16 21  1  0
 19 22  1  0
 22 23  2  0
 23 24  1  0
 24 25  2  0
 25 26  1  0
 26 27  2  0
 22 27  1  0
M  END
>  <pIC50>  (55) 
3.28

>  <chembl_id>  (55) 
CHEMBL213805

>  <canonical_smiles>  (55) 
CN(CCc1c[nH]c2ccccc12)C(=O)c3ccc(cc3)c4ccccc4

$$$$
CHEMBL215803
     RDKit          2D

 30 35  0  0  1  0  0  0  0  0999 V2000
   -0.9888    1.0242    0.0000 C   0  0  0  0  0  0  0  0  0  0  0  0
   -0.4556    0.3947    0.0000 C   0  0  0  0  0  0  0  0  0  0  0  0
   -0.6515   -0.4067    0.0000 C   0  0  0  0  0  0  0  0  0  0  0  0
    0.0502   -0.8407    0.0000 C   0  0  0  0  0  0  0  0  0  0  0  0
    0.6797   -0.3075    0.0000 C   0  0  0  0  0  0  0  0  0  0  0  0
    0.3671    0.4560    0.0000 N   0  0  0  0  0  0  0  0  0  0  0  0
    1.0850    1.2264    0.0000 C   0  0  0  0  0  0  0  0  0  0  0  0
    1.8920    1.3976    0.0000 C   0  0  0  0  0  0  0  0  0  0  0  0
    2.6934    1.2017    0.0000 N   0  0  0  0  0  0  0  0  0  0  0  0
    2.5988    0.3822    0.0000 N   0  0  0  0  0  0  0  0  0  0  0  0
    3.3490    0.0389    0.0000 C   0  0  0  0  0  0  0  0  0  0  0  0
    3.5959   -0.7483    0.0000 C   0  0  0  0  0  0  0  0  0  0  0  0
    4.4011   -0.9280    0.0000 C   0  0  0  0  0  0  0  0  0  0  0  0
    4.9594   -0.3206    0.0000 C   0  0  0  0  0  0  0  0  0  0  0  0
    4.7124    0.4666    0.0000 C   0  0  0  0  0  0  0  0  0  0  0  0
    3.9073    0.6463    0.0000 C   0  0  0  0  0  0  0  0  0  0  0  0
    3.5021    1.3650    0.0000 C   0  0  0  0  0  0  0  0  0  0  0  0
    3.8453    2.1152    0.0000 O   0  0  0  0  0  0  0  0  0  0  0  0
    3.2950   -1.6338    0.0000 C   0  0  0  0  0  0  0  0  0  0  0  0
    2.4764   -1.5315    0.0000 N   0  0  0  0  0  0  0  0  0  0  0  0
    1.9784   -2.1892    0.0000 C   0  0  0  0  0  0  0  0  0  0  0  0
    1.1598   -2.0869    0.0000 C   0  0  0  0  0  0  0  0  0  0  0  0
    0.3967   -1.5894    0.0000 O   0  0  0  0  0  0  0  0  0  0  0  0
    0.6618   -2.7446    0.0000 C   0  0  0  0  0  0  0  0  0  0  0  0
    0.9825   -3.5048    0.0000 C   0  0  0  0  0  0  0  0  0  0  0  0
    1.8011   -3.6071    0.0000 C   0  0  0  0  0  0  0  0  0  0  0  0
    2.2991   -2.9494    0.0000 C   0  0  0  0  0  0  0  0  0  0  0  0
    3.1177   -3.0517    0.0000 N   0  0  0  0  0  0  0  0  0  0  0  0
    3.6157   -2.3940    0.0000 C   0  0  0  0  0  0  0  0  0  0  0  0
    4.4343   -2.4963    0.0000 O   0  0  0  0  0  0  0  0  0  0  0  0
  2  1  1  1
  2  3  1  0
  4  3  1  1
  4  5  1  0
  5  6  1  0
  2  6  1  0
  6  7  1  0
  7  8  1  0
  8  9  1  0
  9 10  1  0
 10 11  1  0
 11 12  2  0
 12 13  1  0
 13 14  2  0
 14 15  1  0
 15 16  2  0
 11 16  1  0
 16 17  1  0
  9 17  1  0
 17 18  2  0
 12 19  1  0
 19 20  2  0
 20 21  1  0
 21 22  2  0
 22 23  1  0
  4 23  1  0
 22 24  1  0
 24 25  2  0
 25 26  1  0
 26 27  2  0
 21 27  1  0
 27 28  1  0
 28 29  1  0
 19 29  1  0
 29 30  2  0
M  END
>  <pIC50>  (56) 
8.47

>  <chembl_id>  (56) 
CHEMBL215803

>  <canonical_smiles>  (56) 
C[C@@H]1C[C@H]2CN1CCn3nc4c(cccc4c3O)c5nc6c(O2)cccc6nc5O

$$$$
CHEMBL217092
     RDKit          2D

 38 43  0  0  0  0  0  0  0  0999 V2000
   -3.5724    1.2375    0.0000 C   0  0  0  0  0  0  0  0  0  0  0  0
   -2.8579    0.8250    0.0000 N   0  0  0  0  0  0  0  0  0  0  0  0
   -2.1434    1.2375    0.0000 C   0  0  0  0  0  0  0  0  0  0  0  0
   -1.4289    0.8250    0.0000 C   0  0  0  0  0  0  0  0  0  0  0  0
   -1.4289    0.0000    0.0000 N   0  0  0  0  0  0  0  0  0  0  0  0
   -0.7145   -0.4125    0.0000 C   0  0  0  0  0  0  0  0  0  0  0  0
   -0.7145   -1.2375    0.0000 C   0  0  0  0  0  0  0  0  0  0  0  0
    0.0000   -1.6500    0.0000 O   0  0  0  0  0  0  0  0  0  0  0  0
    0.7145   -1.2375    0.0000 C   0  0  0  0  0  0  0  0  0  0  0  0
    0.7145   -0.4125    0.0000 C   0  0  0  0  0  0  0  0  0  0  0  0
    1.4289    0.0000    0.0000 C   0  0  0  0  0  0  0  0  0  0  0  0
    1.4289    0.8250    0.0000 O   0  0  0  0  0  0  0  0  0  0  0  0
    0.7145    1.2375    0.0000 C   0  0  0  0  0  0  0  0  0  0  0  0
    0.0000    0.8250    0.0000 C   0  0  0  0  0  0  0  0  0  0  0  0
   -0.7145    1.2375    0.0000 C   0  0  0  0  0  0  0  0  0  0  0  0
   -0.7145    2.0625    0.0000 O   0  0  0  0  0  0  0  0  0  0  0  0
    0.0000    2.4750    0.0000 C   0  0  0  0  0  0  0  0  0  0  0  0
    0.7145    2.0625    0.0000 C   0  0  0  0  0  0  0  0  0  0  0  0
    2.1434   -0.4125    0.0000 C   0  0  0  0  0  0  0  0  0  0  0  0
    2.8579    0.0000    0.0000 C   0  0  0  0  0  0  0  0  0  0  0  0
    2.8579    0.8250    0.0000 N   0  0  0  0  0  0  0  0  0  0  0  0
    3.5724    1.2375    0.0000 C   0  0  0  0  0  0  0  0  0  0  0  0
    3.5724    2.0625    0.0000 C   0  0  0  0  0  0  0  0  0  0  0  0
    2.8579    2.4750    0.0000 Cl  0  0  0  0  0  0  0  0  0  0  0  0
    4.2868    2.4750    0.0000 C   0  0  0  0  0  0  0  0  0  0  0  0
    5.0013    2.0625    0.0000 C   0  0  0  0  0  0  0  0  0  0  0  0
    5.0013    1.2375    0.0000 C   0  0  0  0  0  0  0  0  0  0  0  0
    5.6144    0.6855    0.0000 O   0  0  0  0  0  0  0  0  0  0  0  0
    5.2788   -0.0682    0.0000 C   0  0  0  0  0  0  0  0  0  0  0  0
    4.4584    0.0180    0.0000 O   0  0  0  0  0  0  0  0  0  0  0  0
    4.2868    0.8250    0.0000 C   0  0  0  0  0  0  0  0  0  0  0  0
    3.5724   -0.4125    0.0000 N   0  0  0  0  0  0  0  0  0  0  0  0
    3.5724   -1.2375    0.0000 C   0  0  0  0  0  0  0  0  0  0  0  0
    2.8579   -1.6500    0.0000 N   0  0  0  0  0  0  0  0  0  0  0  0
    2.1434   -1.2375    0.0000 C   0  0  0  0  0  0  0  0  0  0  0  0
    1.4289   -1.6500    0.0000 C   0  0  0  0  0  0  0  0  0  0  0  0
   -2.1434   -0.4125    0.0000 C   0  0  0  0  0  0  0  0  0  0  0  0
   -2.8579    0.0000    0.0000 C   0  0  0  0  0  0  0  0  0  0  0  0
  1  2  1  0
  2  3  1  0
  3  4  1  0
  4  5  1  0
  5  6  1  0
  6  7  1  0
  7  8  1  0
  8  9  1  0
  9 10  2  0
 10 11  1  0
 11 12  1  0
 12 13  1  0
 13 14  1  0
 14 15  1  0
 15 16  1  0
 16 17  1  0
 17 18  1  0
 13 18  1  0
 11 19  2  0
 19 20  1  0
 20 21  1  0
 21 22  1  0
 22 23  2  0
 23 24  1  0
 23 25  1  0
 25 26  2  0
 26 27  1  0
 27 28  1  0
 28 29  1  0
 29 30  1  0
 30 31  1  0
 22 31  1  0
 27 31  2  0
 20 32  2  0
 32 33  1  0
 33 34  2  0
 34 35  1  0
 19 35  1  0
 35 36  2  0
  9 36  1  0
  5 37  1  0
 37 38  1  0
  2 38  1  0
M  END
>  <pIC50>  (57) 
5.00

>  <chembl_id>  (57) 
CHEMBL217092

>  <canonical_smiles>  (57) 
CN1CCN(CCOc2cc(OC3CCOCC3)c4c(Nc5c(Cl)ccc6OCOc56)ncnc4c2)CC1

$$$$
CHEMBL222419
     RDKit          2D

 31 34  0  0  1  0  0  0  0  0999 V2000
    3.4990    1.1104    0.0000 C   0  0  0  0  0  0  0  0  0  0  0  0
    2.7845    0.6979    0.0000 O   0  0  0  0  0  0  0  0  0  0  0  0
    2.0701    1.1104    0.0000 C   0  0  0  0  0  0  0  0  0  0  0  0
    1.3556    0.6979    0.0000 C   0  0  0  0  0  0  0  0  0  0  0  0
    0.6411    1.1104    0.0000 C   0  0  0  0  0  0  0  0  0  0  0  0
   -0.1435    0.8555    0.0000 N   0  0  0  0  0  0  0  0  0  0  0  0
   -0.6284    1.5229    0.0000 C   0  0  0  0  0  0  0  0  0  0  0  0
   -0.1435    2.1904    0.0000 N   0  0  0  0  0  0  0  0  0  0  0  0
   -0.3984    2.9750    0.0000 C   0  0  0  0  0  0  0  0  0  0  0  0
   -1.1831    3.2299    0.0000 C   0  0  0  0  0  0  0  0  0  0  0  0
   -1.1831    4.0549    0.0000 C   0  0  0  0  0  0  0  0  0  0  0  0
   -1.8505    4.5399    0.0000 O   0  0  0  0  0  0  0  0  0  0  0  0
   -2.6042    4.2043    0.0000 C   0  0  0  0  0  0  0  0  0  0  0  0
   -2.6904    3.3838    0.0000 C   0  0  0  0  0  0  0  0  0  0  0  0
   -3.2716    4.6892    0.0000 C   0  0  0  0  0  0  0  0  0  0  0  0
   -4.0253    4.3537    0.0000 C   0  0  0  0  0  0  0  0  0  0  0  0
   -4.6927    4.8386    0.0000 C   0  0  0  0  0  0  0  0  0  0  0  0
   -4.6065    5.6591    0.0000 C   0  0  0  0  0  0  0  0  0  0  0  0
   -3.8528    5.9946    0.0000 C   0  0  0  0  0  0  0  0  0  0  0  0
   -3.1854    5.5097    0.0000 C   0  0  0  0  0  0  0  0  0  0  0  0
   -2.4317    5.8453    0.0000 Cl  0  0  0  0  0  0  0  0  0  0  0  0
   -0.3984    4.3099    0.0000 C   0  0  0  0  0  0  0  0  0  0  0  0
    0.0865    3.6424    0.0000 S   0  0  0  0  0  0  0  0  0  0  0  0
   -0.1435    5.0945    0.0000 C   0  0  0  0  0  0  0  0  0  0  0  0
    0.6635    5.2660    0.0000 O   0  0  0  0  0  0  0  0  0  0  0  0
   -0.6955    5.7076    0.0000 N   0  0  0  0  0  0  0  0  0  0  0  0
    0.6411    1.9354    0.0000 C   0  0  0  0  0  0  0  0  0  0  0  0
    1.3556    2.3479    0.0000 C   0  0  0  0  0  0  0  0  0  0  0  0
    2.0701    1.9354    0.0000 C   0  0  0  0  0  0  0  0  0  0  0  0
    2.7845    2.3479    0.0000 O   0  0  0  0  0  0  0  0  0  0  0  0
    3.4990    1.9354    0.0000 C   0  0  0  0  0  0  0  0  0  0  0  0
  1  2  1  0
  2  3  1  0
  3  4  2  0
  4  5  1  0
  5  6  1  0
  6  7  2  0
  7  8  1  0
  8  9  1  0
  9 10  2  0
 10 11  1  0
 11 12  1  0
 13 12  1  0
 13 14  1  6
 13 15  1  0
 15 16  2  0
 16 17  1  0
 17 18  2  0
 18 19  1  0
 19 20  2  0
 15 20  1  0
 20 21  1  0
 11 22  2  0
 22 23  1  0
  9 23  1  0
 22 24  1  0
 24 25  2  0
 24 26  1  0
  8 27  1  0
  5 27  2  0
 27 28  1  0
 28 29  2  0
  3 29  1  0
 29 30  1  0
 30 31  1  0
M  END
>  <pIC50>  (58) 
5.80

>  <chembl_id>  (58) 
CHEMBL222419

>  <canonical_smiles>  (58) 
COc1cc2ncn(c3cc(O[C@H](C)c4ccccc4Cl)c(s3)C(=O)N)c2cc1OC

$$$$
CHEMBL2322701
     RDKit          2D

 23 26  0  0  0  0  0  0  0  0999 V2000
    0.3758   -2.2779    0.0000 C   0  0  0  0  0  0  0  0  0  0  0  0
    0.8068   -1.5745    0.0000 C   0  0  0  0  0  0  0  0  0  0  0  0
    0.4911   -0.8123    0.0000 N   0  0  0  0  0  0  0  0  0  0  0  0
    1.1184   -0.2765    0.0000 N   0  0  0  0  0  0  0  0  0  0  0  0
    1.8219   -0.7075    0.0000 C   0  0  0  0  0  0  0  0  0  0  0  0
    2.5691   -0.3579    0.0000 N   0  0  0  0  0  0  0  0  0  0  0  0
    3.3084   -0.7241    0.0000 C   0  0  0  0  0  0  0  0  0  0  0  0
    3.9194   -0.1698    0.0000 C   0  0  0  0  0  0  0  0  0  0  0  0
    4.7050   -0.4218    0.0000 C   0  0  0  0  0  0  0  0  0  0  0  0
    4.8795   -1.2281    0.0000 C   0  0  0  0  0  0  0  0  0  0  0  0
    5.6651   -1.4801    0.0000 N   0  0  0  0  0  0  0  0  0  0  0  0
    4.2685   -1.7824    0.0000 C   0  0  0  0  0  0  0  0  0  0  0  0
    3.4829   -1.5305    0.0000 C   0  0  0  0  0  0  0  0  0  0  0  0
    2.9614   -2.1697    0.0000 C   0  0  0  0  0  0  0  0  0  0  0  0
    2.1364   -2.1605    0.0000 N   0  0  0  0  0  0  0  0  0  0  0  0
    1.6293   -1.5097    0.0000 C   0  0  0  0  0  0  0  0  0  0  0  0
    3.3110   -2.9169    0.0000 C   0  0  0  0  0  0  0  0  0  0  0  0
    4.1330   -2.9878    0.0000 C   0  0  0  0  0  0  0  0  0  0  0  0
    4.4826   -3.7350    0.0000 C   0  0  0  0  0  0  0  0  0  0  0  0
    4.0103   -4.4114    0.0000 C   0  0  0  0  0  0  0  0  0  0  0  0
    3.1883   -4.3406    0.0000 C   0  0  0  0  0  0  0  0  0  0  0  0
    2.8387   -3.5933    0.0000 C   0  0  0  0  0  0  0  0  0  0  0  0
    2.0167   -3.5225    0.0000 Cl  0  0  0  0  0  0  0  0  0  0  0  0
  1  2  1  0
  2  3  2  0
  3  4  1  0
  4  5  1  0
  5  6  1  0
  6  7  1  0
  7  8  2  0
  8  9  1  0
  9 10  2  0
 10 11  1  0
 10 12  1  0
 12 13  2  0
  7 13  1  0
 13 14  1  0
 14 15  2  0
 15 16  1  0
  2 16  1  0
  5 16  2  0
 14 17  1  0
 17 18  2  0
 18 19  1  0
 19 20  2  0
 20 21  1  0
 21 22  2  0
 17 22  1  0
 22 23  1  0
M  END
>  <pIC50>  (59) 
7.06

>  <chembl_id>  (59) 
CHEMBL2322701

>  <canonical_smiles>  (59) 
Cc1[nH]nc2Nc3ccc(N)cc3C(=Nc12)c4ccccc4Cl

$$$$
CHEMBL2334964
     RDKit          2D

 17 19  0  0  0  0  0  0  0  0999 V2000
    1.7329   -4.1608    0.0000 N   0  0  0  0  0  0  0  0  0  0  0  0
    1.1809   -3.5477    0.0000 C   0  0  0  0  0  0  0  0  0  0  0  0
    0.3739   -3.7192    0.0000 N   0  0  0  0  0  0  0  0  0  0  0  0
   -0.1781   -3.1062    0.0000 C   0  0  0  0  0  0  0  0  0  0  0  0
    0.0768   -2.3215    0.0000 C   0  0  0  0  0  0  0  0  0  0  0  0
    0.8838   -2.1500    0.0000 C   0  0  0  0  0  0  0  0  0  0  0  0
    1.4358   -2.7631    0.0000 N   0  0  0  0  0  0  0  0  0  0  0  0
    1.1387   -1.3654    0.0000 N   0  0  0  0  0  0  0  0  0  0  0  0
    0.6538   -0.6979    0.0000 C   0  0  0  0  0  0  0  0  0  0  0  0
    1.1387   -0.0305    0.0000 C   0  0  0  0  0  0  0  0  0  0  0  0
    1.9233   -0.2854    0.0000 C   0  0  0  0  0  0  0  0  0  0  0  0
    2.6378    0.1271    0.0000 C   0  0  0  0  0  0  0  0  0  0  0  0
    3.3523   -0.2854    0.0000 C   0  0  0  0  0  0  0  0  0  0  0  0
    3.3523   -1.1104    0.0000 C   0  0  0  0  0  0  0  0  0  0  0  0
    4.0668   -1.5229    0.0000 Cl  0  0  0  0  0  0  0  0  0  0  0  0
    2.6378   -1.5229    0.0000 C   0  0  0  0  0  0  0  0  0  0  0  0
    1.9233   -1.1104    0.0000 C   0  0  0  0  0  0  0  0  0  0  0  0
  1  2  1  0
  2  3  2  0
  3  4  1  0
  4  5  2  0
  5  6  1  0
  6  7  2  0
  2  7  1  0
  6  8  1  0
  8  9  1  0
  9 10  2  0
 10 11  1  0
 11 12  2  0
 12 13  1  0
 13 14  2  0
 14 15  1  0
 14 16  1  0
 16 17  2  0
  8 17  1  0
 11 17  1  0
M  END
>  <pIC50>  (60) 
5.43

>  <chembl_id>  (60) 
CHEMBL2334964

>  <canonical_smiles>  (60) 
Nc1nccc(n1)n2ccc3ccc(Cl)cc23

$$$$
CHEMBL2334965
     RDKit          2D

 17 19  0  0  0  0  0  0  0  0999 V2000
    1.7329   -4.1608    0.0000 N   0  0  0  0  0  0  0  0  0  0  0  0
    1.1809   -3.5477    0.0000 C   0  0  0  0  0  0  0  0  0  0  0  0
    0.3739   -3.7192    0.0000 N   0  0  0  0  0  0  0  0  0  0  0  0
   -0.1781   -3.1062    0.0000 C   0  0  0  0  0  0  0  0  0  0  0  0
    0.0768   -2.3215    0.0000 C   0  0  0  0  0  0  0  0  0  0  0  0
    0.8838   -2.1500    0.0000 C   0  0  0  0  0  0  0  0  0  0  0  0
    1.4358   -2.7631    0.0000 N   0  0  0  0  0  0  0  0  0  0  0  0
    1.1387   -1.3654    0.0000 N   0  0  0  0  0  0  0  0  0  0  0  0
    0.6538   -0.6979    0.0000 C   0  0  0  0  0  0  0  0  0  0  0  0
    1.1387   -0.0305    0.0000 C   0  0  0  0  0  0  0  0  0  0  0  0
    1.9233   -0.2854    0.0000 C   0  0  0  0  0  0  0  0  0  0  0  0
    2.6378    0.1271    0.0000 C   0  0  0  0  0  0  0  0  0  0  0  0
    3.3523   -0.2854    0.0000 C   0  0  0  0  0  0  0  0  0  0  0  0
    3.3523   -1.1104    0.0000 C   0  0  0  0  0  0  0  0  0  0  0  0
    4.0668   -1.5229    0.0000 Br  0  0  0  0  0  0  0  0  0  0  0  0
    2.6378   -1.5229    0.0000 C   0  0  0  0  0  0  0  0  0  0  0  0
    1.9233   -1.1104    0.0000 C   0  0  0  0  0  0  0  0  0  0  0  0
  1  2  1  0
  2  3  2  0
  3  4  1  0
  4  5  2  0
  5  6  1  0
  6  7  2  0
  2  7  1  0
  6  8  1  0
  8  9  1  0
  9 10  2  0
 10 11  1  0
 11 12  2  0
 12 13  1  0
 13 14  2  0
 14 15  1  0
 14 16  1  0
 16 17  2  0
  8 17  1  0
 11 17  1  0
M  END
>  <pIC50>  (61) 
5.09

>  <chembl_id>  (61) 
CHEMBL2334965

>  <canonical_smiles>  (61) 
Nc1nccc(n1)n2ccc3ccc(Br)cc23

$$$$
CHEMBL2334966
     RDKit          2D

 18 20  0  0  0  0  0  0  0  0999 V2000
    1.7329   -4.1608    0.0000 N   0  0  0  0  0  0  0  0  0  0  0  0
    1.1809   -3.5477    0.0000 C   0  0  0  0  0  0  0  0  0  0  0  0
    0.3739   -3.7192    0.0000 N   0  0  0  0  0  0  0  0  0  0  0  0
   -0.1781   -3.1062    0.0000 C   0  0  0  0  0  0  0  0  0  0  0  0
    0.0768   -2.3215    0.0000 C   0  0  0  0  0  0  0  0  0  0  0  0
    0.8838   -2.1500    0.0000 C   0  0  0  0  0  0  0  0  0  0  0  0
    1.4358   -2.7631    0.0000 N   0  0  0  0  0  0  0  0  0  0  0  0
    1.1387   -1.3654    0.0000 N   0  0  0  0  0  0  0  0  0  0  0  0
    0.6538   -0.6979    0.0000 C   0  0  0  0  0  0  0  0  0  0  0  0
    1.1387   -0.0305    0.0000 C   0  0  0  0  0  0  0  0  0  0  0  0
    1.9233   -0.2854    0.0000 C   0  0  0  0  0  0  0  0  0  0  0  0
    2.6378    0.1271    0.0000 C   0  0  0  0  0  0  0  0  0  0  0  0
    3.3523   -0.2854    0.0000 C   0  0  0  0  0  0  0  0  0  0  0  0
    3.3523   -1.1104    0.0000 C   0  0  0  0  0  0  0  0  0  0  0  0
    2.6378   -1.5229    0.0000 C   0  0  0  0  0  0  0  0  0  0  0  0
    1.9233   -1.1104    0.0000 C   0  0  0  0  0  0  0  0  0  0  0  0
    4.0668   -1.5229    0.0000 C   0  0  0  0  0  0  0  0  0  0  0  0
    4.7812   -1.9354    0.0000 N   0  0  0  0  0  0  0  0  0  0  0  0
  1  2  1  0
  2  3  2  0
  3  4  1  0
  4  5  2  0
  5  6  1  0
  6  7  2  0
  2  7  1  0
  6  8  1  0
  8  9  1  0
  9 10  2  0
 10 11  1  0
 11 12  2  0
 12 13  1  0
 13 14  2  0
 14 15  1  0
 15 16  2  0
  8 16  1  0
 11 16  1  0
 14 17  1  0
 17 18  3  0
M  END
>  <pIC50>  (62) 
4.78

>  <chembl_id>  (62) 
CHEMBL2334966

>  <canonical_smiles>  (62) 
Nc1nccc(n1)n2ccc3ccc(cc23)C#N

$$$$
CHEMBL2346665
     RDKit          2D

 17 19  0  0  0  0  0  0  0  0999 V2000
    1.7329   -4.1608    0.0000 N   0  0  0  0  0  0  0  0  0  0  0  0
    1.1809   -3.5477    0.0000 C   0  0  0  0  0  0  0  0  0  0  0  0
    0.3739   -3.7192    0.0000 N   0  0  0  0  0  0  0  0  0  0  0  0
   -0.1781   -3.1062    0.0000 C   0  0  0  0  0  0  0  0  0  0  0  0
    0.0768   -2.3215    0.0000 C   0  0  0  0  0  0  0  0  0  0  0  0
    0.8838   -2.1500    0.0000 C   0  0  0  0  0  0  0  0  0  0  0  0
    1.4358   -2.7631    0.0000 N   0  0  0  0  0  0  0  0  0  0  0  0
    1.1387   -1.3654    0.0000 N   0  0  0  0  0  0  0  0  0  0  0  0
    0.6538   -0.6979    0.0000 C   0  0  0  0  0  0  0  0  0  0  0  0
    1.1387   -0.0305    0.0000 C   0  0  0  0  0  0  0  0  0  0  0  0
    1.9233   -0.2854    0.0000 C   0  0  0  0  0  0  0  0  0  0  0  0
    2.6378    0.1271    0.0000 C   0  0  0  0  0  0  0  0  0  0  0  0
    3.3523   -0.2854    0.0000 N   0  0  0  0  0  0  0  0  0  0  0  0
    3.3523   -1.1104    0.0000 C   0  0  0  0  0  0  0  0  0  0  0  0
    4.0668   -1.5229    0.0000 Cl  0  0  0  0  0  0  0  0  0  0  0  0
    2.6378   -1.5229    0.0000 C   0  0  0  0  0  0  0  0  0  0  0  0
    1.9233   -1.1104    0.0000 C   0  0  0  0  0  0  0  0  0  0  0  0
  1  2  1  0
  2  3  2  0
  3  4  1  0
  4  5  2  0
  5  6  1  0
  6  7  2  0
  2  7  1  0
  6  8  1  0
  8  9  1  0
  9 10  2  0
 10 11  1  0
 11 12  2  0
 12 13  1  0
 13 14  2  0
 14 15  1  0
 14 16  1  0
 16 17  2  0
  8 17  1  0
 11 17  1  0
M  END
>  <pIC50>  (63) 
4.42

>  <chembl_id>  (63) 
CHEMBL2346665

>  <canonical_smiles>  (63) 
Nc1nccc(n1)n2ccc3cnc(Cl)cc23

$$$$
CHEMBL2348154
     RDKit          2D

 23 26  0  0  0  0  0  0  0  0999 V2000
    1.7329   -4.1608    0.0000 N   0  0  0  0  0  0  0  0  0  0  0  0
    1.1809   -3.5477    0.0000 C   0  0  0  0  0  0  0  0  0  0  0  0
    0.3739   -3.7192    0.0000 N   0  0  0  0  0  0  0  0  0  0  0  0
   -0.1781   -3.1062    0.0000 C   0  0  0  0  0  0  0  0  0  0  0  0
    0.0768   -2.3215    0.0000 C   0  0  0  0  0  0  0  0  0  0  0  0
    0.8838   -2.1500    0.0000 C   0  0  0  0  0  0  0  0  0  0  0  0
    1.4358   -2.7631    0.0000 N   0  0  0  0  0  0  0  0  0  0  0  0
    1.1387   -1.3654    0.0000 N   0  0  0  0  0  0  0  0  0  0  0  0
    0.6538   -0.6979    0.0000 C   0  0  0  0  0  0  0  0  0  0  0  0
    1.1387   -0.0305    0.0000 C   0  0  0  0  0  0  0  0  0  0  0  0
    0.8838    0.7541    0.0000 C   0  0  0  0  0  0  0  0  0  0  0  0
    0.0768    0.9256    0.0000 C   0  0  0  0  0  0  0  0  0  0  0  0
   -0.1781    1.7103    0.0000 C   0  0  0  0  0  0  0  0  0  0  0  0
    0.3739    2.3234    0.0000 C   0  0  0  0  0  0  0  0  0  0  0  0
    1.1809    2.1518    0.0000 N   0  0  0  0  0  0  0  0  0  0  0  0
    1.4358    1.3672    0.0000 C   0  0  0  0  0  0  0  0  0  0  0  0
    2.2428    1.1957    0.0000 Cl  0  0  0  0  0  0  0  0  0  0  0  0
    1.9233   -0.2854    0.0000 C   0  0  0  0  0  0  0  0  0  0  0  0
    2.6378    0.1271    0.0000 C   0  0  0  0  0  0  0  0  0  0  0  0
    3.3523   -0.2854    0.0000 N   0  0  0  0  0  0  0  0  0  0  0  0
    3.3523   -1.1104    0.0000 C   0  0  0  0  0  0  0  0  0  0  0  0
    2.6378   -1.5229    0.0000 C   0  0  0  0  0  0  0  0  0  0  0  0
    1.9233   -1.1104    0.0000 C   0  0  0  0  0  0  0  0  0  0  0  0
  1  2  1  0
  2  3  2  0
  3  4  1  0
  4  5  2  0
  5  6  1  0
  6  7  2  0
  2  7  1  0
  6  8  1  0
  8  9  1  0
  9 10  2  0
 10 11  1  0
 11 12  2  0
 12 13  1  0
 13 14  2  0
 14 15  1  0
 15 16  2  0
 11 16  1  0
 16 17  1  0
 10 18  1  0
 18 19  2  0
 19 20  1  0
 20 21  2  0
 21 22  1  0
 22 23  2  0
  8 23  1  0
 18 23  1  0
M  END
>  <pIC50>  (64) 
6.51

>  <chembl_id>  (64) 
CHEMBL2348154

>  <canonical_smiles>  (64) 
Nc1nccc(n1)n2cc(c3cccnc3Cl)c4cnccc24

$$$$
CHEMBL2348155
     RDKit          2D

 23 26  0  0  0  0  0  0  0  0999 V2000
    1.7329   -4.1608    0.0000 N   0  0  0  0  0  0  0  0  0  0  0  0
    1.1809   -3.5477    0.0000 C   0  0  0  0  0  0  0  0  0  0  0  0
    0.3739   -3.7192    0.0000 N   0  0  0  0  0  0  0  0  0  0  0  0
   -0.1781   -3.1062    0.0000 C   0  0  0  0  0  0  0  0  0  0  0  0
    0.0768   -2.3215    0.0000 C   0  0  0  0  0  0  0  0  0  0  0  0
    0.8838   -2.1500    0.0000 C   0  0  0  0  0  0  0  0  0  0  0  0
    1.4358   -2.7631    0.0000 N   0  0  0  0  0  0  0  0  0  0  0  0
    1.1387   -1.3654    0.0000 N   0  0  0  0  0  0  0  0  0  0  0  0
    0.6538   -0.6979    0.0000 C   0  0  0  0  0  0  0  0  0  0  0  0
    1.1387   -0.0305    0.0000 C   0  0  0  0  0  0  0  0  0  0  0  0
    0.8838    0.7541    0.0000 C   0  0  0  0  0  0  0  0  0  0  0  0
    0.0768    0.9256    0.0000 C   0  0  0  0  0  0  0  0  0  0  0  0
   -0.1781    1.7103    0.0000 C   0  0  0  0  0  0  0  0  0  0  0  0
    0.3739    2.3234    0.0000 C   0  0  0  0  0  0  0  0  0  0  0  0
    0.1190    3.1080    0.0000 Cl  0  0  0  0  0  0  0  0  0  0  0  0
    1.1809    2.1518    0.0000 C   0  0  0  0  0  0  0  0  0  0  0  0
    1.4358    1.3672    0.0000 C   0  0  0  0  0  0  0  0  0  0  0  0
    1.9233   -0.2854    0.0000 C   0  0  0  0  0  0  0  0  0  0  0  0
    2.6378    0.1271    0.0000 C   0  0  0  0  0  0  0  0  0  0  0  0
    3.3523   -0.2854    0.0000 N   0  0  0  0  0  0  0  0  0  0  0  0
    3.3523   -1.1104    0.0000 C   0  0  0  0  0  0  0  0  0  0  0  0
    2.6378   -1.5229    0.0000 C   0  0  0  0  0  0  0  0  0  0  0  0
    1.9233   -1.1104    0.0000 C   0  0  0  0  0  0  0  0  0  0  0  0
  1  2  1  0
  2  3  2  0
  3  4  1  0
  4  5  2  0
  5  6  1  0
  6  7  2  0
  2  7  1  0
  6  8  1  0
  8  9  1  0
  9 10  2  0
 10 11  1  0
 11 12  2  0
 12 13  1  0
 13 14  2  0
 14 15  1  0
 14 16  1  0
 16 17  2  0
 11 17  1  0
 10 18  1  0
 18 19  2  0
 19 20  1  0
 20 21  2  0
 21 22  1  0
 22 23  2  0
  8 23  1  0
 18 23  1  0
M  END
>  <pIC50>  (65) 
7.22

>  <chembl_id>  (65) 
CHEMBL2348155

>  <canonical_smiles>  (65) 
Nc1nccc(n1)n2cc(c3ccc(Cl)cc3)c4cnccc24

$$$$
CHEMBL2348156
     RDKit          2D

 23 26  0  0  0  0  0  0  0  0999 V2000
    1.7329   -4.1608    0.0000 N   0  0  0  0  0  0  0  0  0  0  0  0
    1.1809   -3.5477    0.0000 C   0  0  0  0  0  0  0  0  0  0  0  0
    0.3739   -3.7192    0.0000 N   0  0  0  0  0  0  0  0  0  0  0  0
   -0.1781   -3.1062    0.0000 C   0  0  0  0  0  0  0  0  0  0  0  0
    0.0768   -2.3215    0.0000 C   0  0  0  0  0  0  0  0  0  0  0  0
    0.8838   -2.1500    0.0000 C   0  0  0  0  0  0  0  0  0  0  0  0
    1.4358   -2.7631    0.0000 N   0  0  0  0  0  0  0  0  0  0  0  0
    1.1387   -1.3654    0.0000 N   0  0  0  0  0  0  0  0  0  0  0  0
    0.6538   -0.6979    0.0000 C   0  0  0  0  0  0  0  0  0  0  0  0
    1.1387   -0.0305    0.0000 C   0  0  0  0  0  0  0  0  0  0  0  0
    0.8838    0.7541    0.0000 C   0  0  0  0  0  0  0  0  0  0  0  0
    0.0768    0.9256    0.0000 C   0  0  0  0  0  0  0  0  0  0  0  0
   -0.1781    1.7103    0.0000 C   0  0  0  0  0  0  0  0  0  0  0  0
    0.3739    2.3234    0.0000 C   0  0  0  0  0  0  0  0  0  0  0  0
    1.1809    2.1518    0.0000 C   0  0  0  0  0  0  0  0  0  0  0  0
    1.4358    1.3672    0.0000 C   0  0  0  0  0  0  0  0  0  0  0  0
    2.2428    1.1957    0.0000 Cl  0  0  0  0  0  0  0  0  0  0  0  0
    1.9233   -0.2854    0.0000 C   0  0  0  0  0  0  0  0  0  0  0  0
    2.6378    0.1271    0.0000 C   0  0  0  0  0  0  0  0  0  0  0  0
    3.3523   -0.2854    0.0000 N   0  0  0  0  0  0  0  0  0  0  0  0
    3.3523   -1.1104    0.0000 C   0  0  0  0  0  0  0  0  0  0  0  0
    2.6378   -1.5229    0.0000 C   0  0  0  0  0  0  0  0  0  0  0  0
    1.9233   -1.1104    0.0000 C   0  0  0  0  0  0  0  0  0  0  0  0
  1  2  1  0
  2  3  2  0
  3  4  1  0
  4  5  2  0
  5  6  1  0
  6  7  2  0
  2  7  1  0
  6  8  1  0
  8  9  1  0
  9 10  2  0
 10 11  1  0
 11 12  2  0
 12 13  1  0
 13 14  2  0
 14 15  1  0
 15 16  2  0
 11 16  1  0
 16 17  1  0
 10 18  1  0
 18 19  2  0
 19 20  1  0
 20 21  2  0
 21 22  1  0
 22 23  2  0
  8 23  1  0
 18 23  1  0
M  END
>  <pIC50>  (66) 
6.96

>  <chembl_id>  (66) 
CHEMBL2348156

>  <canonical_smiles>  (66) 
Nc1nccc(n1)n2cc(c3ccccc3Cl)c4cnccc24

$$$$
CHEMBL2348158
     RDKit          2D

 22 25  0  0  0  0  0  0  0  0999 V2000
    1.7329   -4.1608    0.0000 N   0  0  0  0  0  0  0  0  0  0  0  0
    1.1809   -3.5477    0.0000 C   0  0  0  0  0  0  0  0  0  0  0  0
    0.3739   -3.7192    0.0000 N   0  0  0  0  0  0  0  0  0  0  0  0
   -0.1781   -3.1062    0.0000 C   0  0  0  0  0  0  0  0  0  0  0  0
    0.0768   -2.3215    0.0000 C   0  0  0  0  0  0  0  0  0  0  0  0
    0.8838   -2.1500    0.0000 C   0  0  0  0  0  0  0  0  0  0  0  0
    1.4358   -2.7631    0.0000 N   0  0  0  0  0  0  0  0  0  0  0  0
    1.1387   -1.3654    0.0000 N   0  0  0  0  0  0  0  0  0  0  0  0
    0.6538   -0.6979    0.0000 C   0  0  0  0  0  0  0  0  0  0  0  0
    1.1387   -0.0305    0.0000 C   0  0  0  0  0  0  0  0  0  0  0  0
    0.8838    0.7541    0.0000 C   0  0  0  0  0  0  0  0  0  0  0  0
    0.0768    0.9256    0.0000 C   0  0  0  0  0  0  0  0  0  0  0  0
   -0.1781    1.7103    0.0000 C   0  0  0  0  0  0  0  0  0  0  0  0
    0.3739    2.3234    0.0000 O   0  0  0  0  0  0  0  0  0  0  0  0
    1.1809    2.1518    0.0000 C   0  0  0  0  0  0  0  0  0  0  0  0
    1.4358    1.3672    0.0000 C   0  0  0  0  0  0  0  0  0  0  0  0
    1.9233   -0.2854    0.0000 C   0  0  0  0  0  0  0  0  0  0  0  0
    2.6378    0.1271    0.0000 C   0  0  0  0  0  0  0  0  0  0  0  0
    3.3523   -0.2854    0.0000 N   0  0  0  0  0  0  0  0  0  0  0  0
    3.3523   -1.1104    0.0000 C   0  0  0  0  0  0  0  0  0  0  0  0
    2.6378   -1.5229    0.0000 C   0  0  0  0  0  0  0  0  0  0  0  0
    1.9233   -1.1104    0.0000 C   0  0  0  0  0  0  0  0  0  0  0  0
  1  2  1  0
  2  3  2  0
  3  4  1  0
  4  5  2  0
  5  6  1  0
  6  7  2  0
  2  7  1  0
  6  8  1  0
  8  9  1  0
  9 10  2  0
 10 11  1  0
 11 12  2  0
 12 13  1  0
 13 14  1  0
 14 15  1  0
 15 16  1  0
 11 16  1  0
 10 17  1  0
 17 18  2  0
 18 19  1  0
 19 20  2  0
 20 21  1  0
 21 22  2  0
  8 22  1  0
 17 22  1  0
M  END
>  <pIC50>  (67) 
6.80

>  <chembl_id>  (67) 
CHEMBL2348158

>  <canonical_smiles>  (67) 
Nc1nccc(n1)n2cc(C3=CCOCC3)c4cnccc24

$$$$
CHEMBL2348159
     RDKit          2D

 21 24  0  0  0  0  0  0  0  0999 V2000
    1.7329   -4.1608    0.0000 N   0  0  0  0  0  0  0  0  0  0  0  0
    1.1809   -3.5477    0.0000 C   0  0  0  0  0  0  0  0  0  0  0  0
    0.3739   -3.7192    0.0000 N   0  0  0  0  0  0  0  0  0  0  0  0
   -0.1781   -3.1062    0.0000 C   0  0  0  0  0  0  0  0  0  0  0  0
    0.0768   -2.3215    0.0000 C   0  0  0  0  0  0  0  0  0  0  0  0
    0.8838   -2.1500    0.0000 C   0  0  0  0  0  0  0  0  0  0  0  0
    1.4358   -2.7631    0.0000 N   0  0  0  0  0  0  0  0  0  0  0  0
    1.1387   -1.3654    0.0000 N   0  0  0  0  0  0  0  0  0  0  0  0
    0.6538   -0.6979    0.0000 C   0  0  0  0  0  0  0  0  0  0  0  0
    1.1387   -0.0305    0.0000 C   0  0  0  0  0  0  0  0  0  0  0  0
    0.8838    0.7541    0.0000 C   0  0  0  0  0  0  0  0  0  0  0  0
    0.0992    1.0091    0.0000 C   0  0  0  0  0  0  0  0  0  0  0  0
    0.0992    1.8341    0.0000 C   0  0  0  0  0  0  0  0  0  0  0  0
    0.8838    2.0890    0.0000 N   0  0  0  0  0  0  0  0  0  0  0  0
    1.3687    1.4216    0.0000 N   0  0  0  0  0  0  0  0  0  0  0  0
    1.9233   -0.2854    0.0000 C   0  0  0  0  0  0  0  0  0  0  0  0
    2.6378    0.1271    0.0000 C   0  0  0  0  0  0  0  0  0  0  0  0
    3.3523   -0.2854    0.0000 N   0  0  0  0  0  0  0  0  0  0  0  0
    3.3523   -1.1104    0.0000 C   0  0  0  0  0  0  0  0  0  0  0  0
    2.6378   -1.5229    0.0000 C   0  0  0  0  0  0  0  0  0  0  0  0
    1.9233   -1.1104    0.0000 C   0  0  0  0  0  0  0  0  0  0  0  0
  1  2  1  0
  2  3  2  0
  3  4  1  0
  4  5  2  0
  5  6  1  0
  6  7  2  0
  2  7  1  0
  6  8  1  0
  8  9  1  0
  9 10  2  0
 10 11  1  0
 11 12  1  0
 12 13  2  0
 13 14  1  0
 14 15  1  0
 11 15  2  0
 10 16  1  0
 16 17  2  0
 17 18  1  0
 18 19  2  0
 19 20  1  0
 20 21  2  0
  8 21  1  0
 16 21  1  0
M  END
>  <pIC50>  (68) 
6.26

>  <chembl_id>  (68) 
CHEMBL2348159

>  <canonical_smiles>  (68) 
Nc1nccc(n1)n2cc(c3cc[nH]n3)c4cnccc24

$$$$
CHEMBL2348160
     RDKit          2D

 21 24  0  0  0  0  0  0  0  0999 V2000
    1.7329   -4.1608    0.0000 N   0  0  0  0  0  0  0  0  0  0  0  0
    1.1809   -3.5477    0.0000 C   0  0  0  0  0  0  0  0  0  0  0  0
    0.3739   -3.7192    0.0000 N   0  0  0  0  0  0  0  0  0  0  0  0
   -0.1781   -3.1062    0.0000 C   0  0  0  0  0  0  0  0  0  0  0  0
    0.0768   -2.3215    0.0000 C   0  0  0  0  0  0  0  0  0  0  0  0
    0.8838   -2.1500    0.0000 C   0  0  0  0  0  0  0  0  0  0  0  0
    1.4358   -2.7631    0.0000 N   0  0  0  0  0  0  0  0  0  0  0  0
    1.1387   -1.3654    0.0000 N   0  0  0  0  0  0  0  0  0  0  0  0
    0.6538   -0.6979    0.0000 C   0  0  0  0  0  0  0  0  0  0  0  0
    1.1387   -0.0305    0.0000 C   0  0  0  0  0  0  0  0  0  0  0  0
    0.8838    0.7541    0.0000 C   0  0  0  0  0  0  0  0  0  0  0  0
    0.0992    1.0091    0.0000 C   0  0  0  0  0  0  0  0  0  0  0  0
    0.0992    1.8341    0.0000 O   0  0  0  0  0  0  0  0  0  0  0  0
    0.8838    2.0890    0.0000 C   0  0  0  0  0  0  0  0  0  0  0  0
    1.3687    1.4216    0.0000 C   0  0  0  0  0  0  0  0  0  0  0  0
    1.9233   -0.2854    0.0000 C   0  0  0  0  0  0  0  0  0  0  0  0
    2.6378    0.1271    0.0000 C   0  0  0  0  0  0  0  0  0  0  0  0
    3.3523   -0.2854    0.0000 N   0  0  0  0  0  0  0  0  0  0  0  0
    3.3523   -1.1104    0.0000 C   0  0  0  0  0  0  0  0  0  0  0  0
    2.6378   -1.5229    0.0000 C   0  0  0  0  0  0  0  0  0  0  0  0
    1.9233   -1.1104    0.0000 C   0  0  0  0  0  0  0  0  0  0  0  0
  1  2  1  0
  2  3  2  0
  3  4  1  0
  4  5  2  0
  5  6  1  0
  6  7  2  0
  2  7  1  0
  6  8  1  0
  8  9  1  0
  9 10  2  0
 10 11  1  0
 11 12  2  0
 12 13  1  0
 13 14  1  0
 14 15  2  0
 11 15  1  0
 10 16  1  0
 16 17  2  0
 17 18  1  0
 18 19  2  0
 19 20  1  0
 20 21  2  0
  8 21  1  0
 16 21  1  0
M  END
>  <pIC50>  (69) 
7.00

>  <chembl_id>  (69) 
CHEMBL2348160

>  <canonical_smiles>  (69) 
Nc1nccc(n1)n2cc(c3cocc3)c4cnccc24

$$$$
CHEMBL2348161
     RDKit          2D

 22 25  0  0  0  0  0  0  0  0999 V2000
    1.7329   -4.1608    0.0000 N   0  0  0  0  0  0  0  0  0  0  0  0
    1.1809   -3.5477    0.0000 C   0  0  0  0  0  0  0  0  0  0  0  0
    0.3739   -3.7192    0.0000 N   0  0  0  0  0  0  0  0  0  0  0  0
   -0.1781   -3.1062    0.0000 C   0  0  0  0  0  0  0  0  0  0  0  0
    0.0768   -2.3215    0.0000 C   0  0  0  0  0  0  0  0  0  0  0  0
    0.8838   -2.1500    0.0000 C   0  0  0  0  0  0  0  0  0  0  0  0
    1.4358   -2.7631    0.0000 N   0  0  0  0  0  0  0  0  0  0  0  0
    1.1387   -1.3654    0.0000 N   0  0  0  0  0  0  0  0  0  0  0  0
    0.6538   -0.6979    0.0000 C   0  0  0  0  0  0  0  0  0  0  0  0
    1.1387   -0.0305    0.0000 C   0  0  0  0  0  0  0  0  0  0  0  0
    0.8838    0.7541    0.0000 C   0  0  0  0  0  0  0  0  0  0  0  0
    0.0768    0.9256    0.0000 C   0  0  0  0  0  0  0  0  0  0  0  0
   -0.1781    1.7103    0.0000 C   0  0  0  0  0  0  0  0  0  0  0  0
    0.3739    2.3234    0.0000 N   0  0  0  0  0  0  0  0  0  0  0  0
    1.1809    2.1518    0.0000 C   0  0  0  0  0  0  0  0  0  0  0  0
    1.4358    1.3672    0.0000 C   0  0  0  0  0  0  0  0  0  0  0  0
    1.9233   -0.2854    0.0000 C   0  0  0  0  0  0  0  0  0  0  0  0
    2.6378    0.1271    0.0000 C   0  0  0  0  0  0  0  0  0  0  0  0
    3.3523   -0.2854    0.0000 N   0  0  0  0  0  0  0  0  0  0  0  0
    3.3523   -1.1104    0.0000 C   0  0  0  0  0  0  0  0  0  0  0  0
    2.6378   -1.5229    0.0000 C   0  0  0  0  0  0  0  0  0  0  0  0
    1.9233   -1.1104    0.0000 C   0  0  0  0  0  0  0  0  0  0  0  0
  1  2  1  0
  2  3  2  0
  3  4  1  0
  4  5  2  0
  5  6  1  0
  6  7  2  0
  2  7  1  0
  6  8  1  0
  8  9  1  0
  9 10  2  0
 10 11  1  0
 11 12  2  0
 12 13  1  0
 13 14  2  0
 14 15  1  0
 15 16  2  0
 11 16  1  0
 10 17  1  0
 17 18  2  0
 18 19  1  0
 19 20  2  0
 20 21  1  0
 21 22  2  0
  8 22  1  0
 17 22  1  0
M  END
>  <pIC50>  (70) 
6.80

>  <chembl_id>  (70) 
CHEMBL2348161

>  <canonical_smiles>  (70) 
Nc1nccc(n1)n2cc(c3ccncc3)c4cnccc24

$$$$
CHEMBL2348162
     RDKit          2D

 22 25  0  0  0  0  0  0  0  0999 V2000
    1.7329   -4.1608    0.0000 N   0  0  0  0  0  0  0  0  0  0  0  0
    1.1809   -3.5477    0.0000 C   0  0  0  0  0  0  0  0  0  0  0  0
    0.3739   -3.7192    0.0000 N   0  0  0  0  0  0  0  0  0  0  0  0
   -0.1781   -3.1062    0.0000 C   0  0  0  0  0  0  0  0  0  0  0  0
    0.0768   -2.3215    0.0000 C   0  0  0  0  0  0  0  0  0  0  0  0
    0.8838   -2.1500    0.0000 C   0  0  0  0  0  0  0  0  0  0  0  0
    1.4358   -2.7631    0.0000 N   0  0  0  0  0  0  0  0  0  0  0  0
    1.1387   -1.3654    0.0000 N   0  0  0  0  0  0  0  0  0  0  0  0
    0.6538   -0.6979    0.0000 C   0  0  0  0  0  0  0  0  0  0  0  0
    1.1387   -0.0305    0.0000 C   0  0  0  0  0  0  0  0  0  0  0  0
    0.8838    0.7541    0.0000 C   0  0  0  0  0  0  0  0  0  0  0  0
    0.0768    0.9256    0.0000 C   0  0  0  0  0  0  0  0  0  0  0  0
   -0.1781    1.7103    0.0000 C   0  0  0  0  0  0  0  0  0  0  0  0
    0.3739    2.3234    0.0000 C   0  0  0  0  0  0  0  0  0  0  0  0
    1.1809    2.1518    0.0000 N   0  0  0  0  0  0  0  0  0  0  0  0
    1.4358    1.3672    0.0000 C   0  0  0  0  0  0  0  0  0  0  0  0
    1.9233   -0.2854    0.0000 C   0  0  0  0  0  0  0  0  0  0  0  0
    2.6378    0.1271    0.0000 C   0  0  0  0  0  0  0  0  0  0  0  0
    3.3523   -0.2854    0.0000 N   0  0  0  0  0  0  0  0  0  0  0  0
    3.3523   -1.1104    0.0000 C   0  0  0  0  0  0  0  0  0  0  0  0
    2.6378   -1.5229    0.0000 C   0  0  0  0  0  0  0  0  0  0  0  0
    1.9233   -1.1104    0.0000 C   0  0  0  0  0  0  0  0  0  0  0  0
  1  2  1  0
  2  3  2  0
  3  4  1  0
  4  5  2  0
  5  6  1  0
  6  7  2  0
  2  7  1  0
  6  8  1  0
  8  9  1  0
  9 10  2  0
 10 11  1  0
 11 12  2  0
 12 13  1  0
 13 14  2  0
 14 15  1  0
 15 16  2  0
 11 16  1  0
 10 17  1  0
 17 18  2  0
 18 19  1  0
 19 20  2  0
 20 21  1  0
 21 22  2  0
  8 22  1  0
 17 22  1  0
M  END
>  <pIC50>  (71) 
5.96

>  <chembl_id>  (71) 
CHEMBL2348162

>  <canonical_smiles>  (71) 
Nc1nccc(n1)n2cc(c3cccnc3)c4cnccc24

$$$$
CHEMBL2348164
     RDKit          2D

 22 25  0  0  0  0  0  0  0  0999 V2000
    1.7329   -4.1608    0.0000 N   0  0  0  0  0  0  0  0  0  0  0  0
    1.1809   -3.5477    0.0000 C   0  0  0  0  0  0  0  0  0  0  0  0
    0.3739   -3.7192    0.0000 N   0  0  0  0  0  0  0  0  0  0  0  0
   -0.1781   -3.1062    0.0000 C   0  0  0  0  0  0  0  0  0  0  0  0
    0.0768   -2.3215    0.0000 C   0  0  0  0  0  0  0  0  0  0  0  0
    0.8838   -2.1500    0.0000 C   0  0  0  0  0  0  0  0  0  0  0  0
    1.4358   -2.7631    0.0000 N   0  0  0  0  0  0  0  0  0  0  0  0
    1.1387   -1.3654    0.0000 N   0  0  0  0  0  0  0  0  0  0  0  0
    0.6538   -0.6979    0.0000 C   0  0  0  0  0  0  0  0  0  0  0  0
    1.1387   -0.0305    0.0000 C   0  0  0  0  0  0  0  0  0  0  0  0
    0.8838    0.7541    0.0000 C   0  0  0  0  0  0  0  0  0  0  0  0
    0.0768    0.9256    0.0000 C   0  0  0  0  0  0  0  0  0  0  0  0
   -0.1781    1.7103    0.0000 C   0  0  0  0  0  0  0  0  0  0  0  0
    0.3739    2.3234    0.0000 C   0  0  0  0  0  0  0  0  0  0  0  0
    1.1809    2.1518    0.0000 C   0  0  0  0  0  0  0  0  0  0  0  0
    1.4358    1.3672    0.0000 C   0  0  0  0  0  0  0  0  0  0  0  0
    1.9233   -0.2854    0.0000 C   0  0  0  0  0  0  0  0  0  0  0  0
    2.6378    0.1271    0.0000 C   0  0  0  0  0  0  0  0  0  0  0  0
    3.3523   -0.2854    0.0000 N   0  0  0  0  0  0  0  0  0  0  0  0
    3.3523   -1.1104    0.0000 C   0  0  0  0  0  0  0  0  0  0  0  0
    2.6378   -1.5229    0.0000 C   0  0  0  0  0  0  0  0  0  0  0  0
    1.9233   -1.1104    0.0000 C   0  0  0  0  0  0  0  0  0  0  0  0
  1  2  1  0
  2  3  2  0
  3  4  1  0
  4  5  2  0
  5  6  1  0
  6  7  2  0
  2  7  1  0
  6  8  1  0
  8  9  1  0
  9 10  2  0
 10 11  1  0
 11 12  2  0
 12 13  1  0
 13 14  2  0
 14 15  1  0
 15 16  2  0
 11 16  1  0
 10 17  1  0
 17 18  2  0
 18 19  1  0
 19 20  2  0
 20 21  1  0
 21 22  2  0
  8 22  1  0
 17 22  1  0
M  END
>  <pIC50>  (72) 
6.51

>  <chembl_id>  (72) 
CHEMBL2348164

>  <canonical_smiles>  (72) 
Nc1nccc(n1)n2cc(c3ccccc3)c4cnccc24

$$$$
CHEMBL2348165
     RDKit          2D

 16 18  0  0  0  0  0  0  0  0999 V2000
    1.7329   -4.1608    0.0000 N   0  0  0  0  0  0  0  0  0  0  0  0
    1.1809   -3.5477    0.0000 C   0  0  0  0  0  0  0  0  0  0  0  0
    0.3739   -3.7192    0.0000 N   0  0  0  0  0  0  0  0  0  0  0  0
   -0.1781   -3.1062    0.0000 C   0  0  0  0  0  0  0  0  0  0  0  0
    0.0768   -2.3215    0.0000 C   0  0  0  0  0  0  0  0  0  0  0  0
    0.8838   -2.1500    0.0000 C   0  0  0  0  0  0  0  0  0  0  0  0
    1.4358   -2.7631    0.0000 N   0  0  0  0  0  0  0  0  0  0  0  0
    1.1387   -1.3654    0.0000 N   0  0  0  0  0  0  0  0  0  0  0  0
    0.6538   -0.6979    0.0000 C   0  0  0  0  0  0  0  0  0  0  0  0
    1.1387   -0.0305    0.0000 C   0  0  0  0  0  0  0  0  0  0  0  0
    1.9233   -0.2854    0.0000 C   0  0  0  0  0  0  0  0  0  0  0  0
    2.6378    0.1271    0.0000 N   0  0  0  0  0  0  0  0  0  0  0  0
    3.3523   -0.2854    0.0000 C   0  0  0  0  0  0  0  0  0  0  0  0
    3.3523   -1.1104    0.0000 C   0  0  0  0  0  0  0  0  0  0  0  0
    2.6378   -1.5229    0.0000 C   0  0  0  0  0  0  0  0  0  0  0  0
    1.9233   -1.1104    0.0000 C   0  0  0  0  0  0  0  0  0  0  0  0
  1  2  1  0
  2  3  2  0
  3  4  1  0
  4  5  2  0
  5  6  1  0
  6  7  2  0
  2  7  1  0
  6  8  1  0
  8  9  1  0
  9 10  2  0
 10 11  1  0
 11 12  2  0
 12 13  1  0
 13 14  2  0
 14 15  1  0
 15 16  2  0
  8 16  1  0
 11 16  1  0
M  END
>  <pIC50>  (73) 
4.68

>  <chembl_id>  (73) 
CHEMBL2348165

>  <canonical_smiles>  (73) 
Nc1nccc(n1)n2ccc3ncccc23

$$$$
CHEMBL2348167
     RDKit          2D

 16 18  0  0  0  0  0  0  0  0999 V2000
    1.7329   -4.1608    0.0000 N   0  0  0  0  0  0  0  0  0  0  0  0
    1.1809   -3.5477    0.0000 C   0  0  0  0  0  0  0  0  0  0  0  0
    0.3739   -3.7192    0.0000 N   0  0  0  0  0  0  0  0  0  0  0  0
   -0.1781   -3.1062    0.0000 C   0  0  0  0  0  0  0  0  0  0  0  0
    0.0768   -2.3215    0.0000 C   0  0  0  0  0  0  0  0  0  0  0  0
    0.8838   -2.1500    0.0000 C   0  0  0  0  0  0  0  0  0  0  0  0
    1.4358   -2.7631    0.0000 N   0  0  0  0  0  0  0  0  0  0  0  0
    1.1387   -1.3654    0.0000 N   0  0  0  0  0  0  0  0  0  0  0  0
    0.6538   -0.6979    0.0000 C   0  0  0  0  0  0  0  0  0  0  0  0
    1.1387   -0.0305    0.0000 C   0  0  0  0  0  0  0  0  0  0  0  0
    1.9233   -0.2854    0.0000 C   0  0  0  0  0  0  0  0  0  0  0  0
    2.6378    0.1271    0.0000 C   0  0  0  0  0  0  0  0  0  0  0  0
    3.3523   -0.2854    0.0000 C   0  0  0  0  0  0  0  0  0  0  0  0
    3.3523   -1.1104    0.0000 N   0  0  0  0  0  0  0  0  0  0  0  0
    2.6378   -1.5229    0.0000 C   0  0  0  0  0  0  0  0  0  0  0  0
    1.9233   -1.1104    0.0000 C   0  0  0  0  0  0  0  0  0  0  0  0
  1  2  1  0
  2  3  2  0
  3  4  1  0
  4  5  2  0
  5  6  1  0
  6  7  2  0
  2  7  1  0
  6  8  1  0
  8  9  1  0
  9 10  2  0
 10 11  1  0
 11 12  2  0
 12 13  1  0
 13 14  2  0
 14 15  1  0
 15 16  2  0
  8 16  1  0
 11 16  1  0
M  END
>  <pIC50>  (74) 
4.35

>  <chembl_id>  (74) 
CHEMBL2348167

>  <canonical_smiles>  (74) 
Nc1nccc(n1)n2ccc3ccncc23

$$$$
CHEMBL2348168
     RDKit          2D

 16 18  0  0  0  0  0  0  0  0999 V2000
    1.7329   -4.1608    0.0000 N   0  0  0  0  0  0  0  0  0  0  0  0
    1.1809   -3.5477    0.0000 C   0  0  0  0  0  0  0  0  0  0  0  0
    0.3739   -3.7192    0.0000 N   0  0  0  0  0  0  0  0  0  0  0  0
   -0.1781   -3.1062    0.0000 C   0  0  0  0  0  0  0  0  0  0  0  0
    0.0768   -2.3215    0.0000 C   0  0  0  0  0  0  0  0  0  0  0  0
    0.8838   -2.1500    0.0000 C   0  0  0  0  0  0  0  0  0  0  0  0
    1.4358   -2.7631    0.0000 N   0  0  0  0  0  0  0  0  0  0  0  0
    1.1387   -1.3654    0.0000 N   0  0  0  0  0  0  0  0  0  0  0  0
    0.6538   -0.6979    0.0000 C   0  0  0  0  0  0  0  0  0  0  0  0
    1.1387   -0.0305    0.0000 C   0  0  0  0  0  0  0  0  0  0  0  0
    1.9233   -0.2854    0.0000 C   0  0  0  0  0  0  0  0  0  0  0  0
    2.6378    0.1271    0.0000 C   0  0  0  0  0  0  0  0  0  0  0  0
    3.3523   -0.2854    0.0000 N   0  0  0  0  0  0  0  0  0  0  0  0
    3.3523   -1.1104    0.0000 C   0  0  0  0  0  0  0  0  0  0  0  0
    2.6378   -1.5229    0.0000 C   0  0  0  0  0  0  0  0  0  0  0  0
    1.9233   -1.1104    0.0000 C   0  0  0  0  0  0  0  0  0  0  0  0
  1  2  1  0
  2  3  2  0
  3  4  1  0
  4  5  2  0
  5  6  1  0
  6  7  2  0
  2  7  1  0
  6  8  1  0
  8  9  1  0
  9 10  2  0
 10 11  1  0
 11 12  2  0
 12 13  1  0
 13 14  2  0
 14 15  1  0
 15 16  2  0
  8 16  1  0
 11 16  1  0
M  END
>  <pIC50>  (75) 
5.43

>  <chembl_id>  (75) 
CHEMBL2348168

>  <canonical_smiles>  (75) 
Nc1nccc(n1)n2ccc3cnccc23

$$$$
CHEMBL2348170
     RDKit          2D

 16 18  0  0  0  0  0  0  0  0999 V2000
    1.7329   -4.1608    0.0000 N   0  0  0  0  0  0  0  0  0  0  0  0
    1.1809   -3.5477    0.0000 C   0  0  0  0  0  0  0  0  0  0  0  0
    0.3739   -3.7192    0.0000 N   0  0  0  0  0  0  0  0  0  0  0  0
   -0.1781   -3.1062    0.0000 C   0  0  0  0  0  0  0  0  0  0  0  0
    0.0768   -2.3215    0.0000 C   0  0  0  0  0  0  0  0  0  0  0  0
    0.8838   -2.1500    0.0000 C   0  0  0  0  0  0  0  0  0  0  0  0
    1.4358   -2.7631    0.0000 N   0  0  0  0  0  0  0  0  0  0  0  0
    1.1387   -1.3654    0.0000 N   0  0  0  0  0  0  0  0  0  0  0  0
    0.6538   -0.6979    0.0000 C   0  0  0  0  0  0  0  0  0  0  0  0
    1.1387   -0.0305    0.0000 C   0  0  0  0  0  0  0  0  0  0  0  0
    1.9233   -0.2854    0.0000 C   0  0  0  0  0  0  0  0  0  0  0  0
    2.6378    0.1271    0.0000 C   0  0  0  0  0  0  0  0  0  0  0  0
    3.3523   -0.2854    0.0000 C   0  0  0  0  0  0  0  0  0  0  0  0
    3.3523   -1.1104    0.0000 C   0  0  0  0  0  0  0  0  0  0  0  0
    2.6378   -1.5229    0.0000 N   0  0  0  0  0  0  0  0  0  0  0  0
    1.9233   -1.1104    0.0000 C   0  0  0  0  0  0  0  0  0  0  0  0
  1  2  1  0
  2  3  2  0
  3  4  1  0
  4  5  2  0
  5  6  1  0
  6  7  2  0
  2  7  1  0
  6  8  1  0
  8  9  1  0
  9 10  2  0
 10 11  1  0
 11 12  2  0
 12 13  1  0
 13 14  2  0
 14 15  1  0
 15 16  2  0
  8 16  1  0
 11 16  1  0
M  END
>  <pIC50>  (76) 
4.38

>  <chembl_id>  (76) 
CHEMBL2348170

>  <canonical_smiles>  (76) 
Nc1nccc(n1)n2ccc3cccnc23

$$$$
CHEMBL2348171
     RDKit          2D

 18 20  0  0  0  0  0  0  0  0999 V2000
    1.7329   -4.1608    0.0000 N   0  0  0  0  0  0  0  0  0  0  0  0
    1.1809   -3.5477    0.0000 C   0  0  0  0  0  0  0  0  0  0  0  0
    0.3739   -3.7192    0.0000 N   0  0  0  0  0  0  0  0  0  0  0  0
   -0.1781   -3.1062    0.0000 C   0  0  0  0  0  0  0  0  0  0  0  0
    0.0768   -2.3215    0.0000 C   0  0  0  0  0  0  0  0  0  0  0  0
    0.8838   -2.1500    0.0000 C   0  0  0  0  0  0  0  0  0  0  0  0
    1.4358   -2.7631    0.0000 N   0  0  0  0  0  0  0  0  0  0  0  0
    1.1387   -1.3654    0.0000 N   0  0  0  0  0  0  0  0  0  0  0  0
    0.6538   -0.6979    0.0000 C   0  0  0  0  0  0  0  0  0  0  0  0
    1.1387   -0.0305    0.0000 C   0  0  0  0  0  0  0  0  0  0  0  0
    1.9233   -0.2854    0.0000 C   0  0  0  0  0  0  0  0  0  0  0  0
    2.6378    0.1271    0.0000 C   0  0  0  0  0  0  0  0  0  0  0  0
    3.3523   -0.2854    0.0000 C   0  0  0  0  0  0  0  0  0  0  0  0
    3.3523   -1.1104    0.0000 C   0  0  0  0  0  0  0  0  0  0  0  0
    2.6378   -1.5229    0.0000 C   0  0  0  0  0  0  0  0  0  0  0  0
    1.9233   -1.1104    0.0000 C   0  0  0  0  0  0  0  0  0  0  0  0
    4.0668   -1.5229    0.0000 C   0  0  0  0  0  0  0  0  0  0  0  0
    4.7812   -1.9354    0.0000 C   0  0  0  0  0  0  0  0  0  0  0  0
  1  2  1  0
  2  3  2  0
  3  4  1  0
  4  5  2  0
  5  6  1  0
  6  7  2  0
  2  7  1  0
  6  8  1  0
  8  9  1  0
  9 10  2  0
 10 11  1  0
 11 12  2  0
 12 13  1  0
 13 14  2  0
 14 15  1  0
 15 16  2  0
  8 16  1  0
 11 16  1  0
 14 17  1  0
 17 18  3  0
M  END
>  <pIC50>  (77) 
5.00

>  <chembl_id>  (77) 
CHEMBL2348171

>  <canonical_smiles>  (77) 
Nc1nccc(n1)n2ccc3ccc(cc23)C#C

$$$$
CHEMBL2348172
     RDKit          2D

 20 22  0  0  0  0  0  0  0  0999 V2000
    1.7329   -4.1608    0.0000 N   0  0  0  0  0  0  0  0  0  0  0  0
    1.1809   -3.5477    0.0000 C   0  0  0  0  0  0  0  0  0  0  0  0
    0.3739   -3.7192    0.0000 N   0  0  0  0  0  0  0  0  0  0  0  0
   -0.1781   -3.1062    0.0000 C   0  0  0  0  0  0  0  0  0  0  0  0
    0.0768   -2.3215    0.0000 C   0  0  0  0  0  0  0  0  0  0  0  0
    0.8838   -2.1500    0.0000 C   0  0  0  0  0  0  0  0  0  0  0  0
    1.4358   -2.7631    0.0000 N   0  0  0  0  0  0  0  0  0  0  0  0
    1.1387   -1.3654    0.0000 N   0  0  0  0  0  0  0  0  0  0  0  0
    0.6538   -0.6979    0.0000 C   0  0  0  0  0  0  0  0  0  0  0  0
    1.1387   -0.0305    0.0000 C   0  0  0  0  0  0  0  0  0  0  0  0
    1.9233   -0.2854    0.0000 C   0  0  0  0  0  0  0  0  0  0  0  0
    2.6378    0.1271    0.0000 C   0  0  0  0  0  0  0  0  0  0  0  0
    3.3523   -0.2854    0.0000 C   0  0  0  0  0  0  0  0  0  0  0  0
    3.3523   -1.1104    0.0000 C   0  0  0  0  0  0  0  0  0  0  0  0
    2.6378   -1.5229    0.0000 C   0  0  0  0  0  0  0  0  0  0  0  0
    1.9233   -1.1104    0.0000 C   0  0  0  0  0  0  0  0  0  0  0  0
    4.0668   -1.5229    0.0000 C   0  0  0  0  0  0  0  0  0  0  0  0
    4.7812   -1.9354    0.0000 F   0  0  0  0  0  0  0  0  0  0  0  0
    3.6543   -2.2374    0.0000 F   0  0  0  0  0  0  0  0  0  0  0  0
    4.4793   -0.8085    0.0000 F   0  0  0  0  0  0  0  0  0  0  0  0
  1  2  1  0
  2  3  2  0
  3  4  1  0
  4  5  2  0
  5  6  1  0
  6  7  2  0
  2  7  1  0
  6  8  1  0
  8  9  1  0
  9 10  2  0
 10 11  1  0
 11 12  2  0
 12 13  1  0
 13 14  2  0
 14 15  1  0
 15 16  2  0
  8 16  1  0
 11 16  1  0
 14 17  1  0
 17 18  1  0
 17 19  1  0
 17 20  1  0
M  END
>  <pIC50>  (78) 
4.77

>  <chembl_id>  (78) 
CHEMBL2348172

>  <canonical_smiles>  (78) 
Nc1nccc(n1)n2ccc3ccc(cc23)C(F)(F)F

$$$$
CHEMBL2348173
     RDKit          2D

 17 19  0  0  0  0  0  0  0  0999 V2000
    1.7329   -4.1608    0.0000 N   0  0  0  0  0  0  0  0  0  0  0  0
    1.1809   -3.5477    0.0000 C   0  0  0  0  0  0  0  0  0  0  0  0
    0.3739   -3.7192    0.0000 N   0  0  0  0  0  0  0  0  0  0  0  0
   -0.1781   -3.1062    0.0000 C   0  0  0  0  0  0  0  0  0  0  0  0
    0.0768   -2.3215    0.0000 C   0  0  0  0  0  0  0  0  0  0  0  0
    0.8838   -2.1500    0.0000 C   0  0  0  0  0  0  0  0  0  0  0  0
    1.4358   -2.7631    0.0000 N   0  0  0  0  0  0  0  0  0  0  0  0
    1.1387   -1.3654    0.0000 N   0  0  0  0  0  0  0  0  0  0  0  0
    0.6538   -0.6979    0.0000 C   0  0  0  0  0  0  0  0  0  0  0  0
    1.1387   -0.0305    0.0000 C   0  0  0  0  0  0  0  0  0  0  0  0
    1.9233   -0.2854    0.0000 C   0  0  0  0  0  0  0  0  0  0  0  0
    2.6378    0.1271    0.0000 C   0  0  0  0  0  0  0  0  0  0  0  0
    3.3523   -0.2854    0.0000 C   0  0  0  0  0  0  0  0  0  0  0  0
    3.3523   -1.1104    0.0000 C   0  0  0  0  0  0  0  0  0  0  0  0
    4.0668   -1.5229    0.0000 O   0  0  0  0  0  0  0  0  0  0  0  0
    2.6378   -1.5229    0.0000 C   0  0  0  0  0  0  0  0  0  0  0  0
    1.9233   -1.1104    0.0000 C   0  0  0  0  0  0  0  0  0  0  0  0
  1  2  1  0
  2  3  2  0
  3  4  1  0
  4  5  2  0
  5  6  1  0
  6  7  2  0
  2  7  1  0
  6  8  1  0
  8  9  1  0
  9 10  2  0
 10 11  1  0
 11 12  2  0
 12 13  1  0
 13 14  2  0
 14 15  1  0
 14 16  1  0
 16 17  2  0
  8 17  1  0
 11 17  1  0
M  END
>  <pIC50>  (79) 
5.30

>  <chembl_id>  (79) 
CHEMBL2348173

>  <canonical_smiles>  (79) 
Nc1nccc(n1)n2ccc3ccc(O)cc23

$$$$
CHEMBL2348175
     RDKit          2D

 17 19  0  0  0  0  0  0  0  0999 V2000
    1.7329   -4.1608    0.0000 N   0  0  0  0  0  0  0  0  0  0  0  0
    1.1809   -3.5477    0.0000 C   0  0  0  0  0  0  0  0  0  0  0  0
    0.3739   -3.7192    0.0000 N   0  0  0  0  0  0  0  0  0  0  0  0
   -0.1781   -3.1062    0.0000 C   0  0  0  0  0  0  0  0  0  0  0  0
    0.0768   -2.3215    0.0000 C   0  0  0  0  0  0  0  0  0  0  0  0
    0.8838   -2.1500    0.0000 C   0  0  0  0  0  0  0  0  0  0  0  0
    1.4358   -2.7631    0.0000 N   0  0  0  0  0  0  0  0  0  0  0  0
    1.1387   -1.3654    0.0000 N   0  0  0  0  0  0  0  0  0  0  0  0
    0.6538   -0.6979    0.0000 C   0  0  0  0  0  0  0  0  0  0  0  0
    1.1387   -0.0305    0.0000 C   0  0  0  0  0  0  0  0  0  0  0  0
    1.9233   -0.2854    0.0000 C   0  0  0  0  0  0  0  0  0  0  0  0
    2.6378    0.1271    0.0000 C   0  0  0  0  0  0  0  0  0  0  0  0
    3.3523   -0.2854    0.0000 C   0  0  0  0  0  0  0  0  0  0  0  0
    3.3523   -1.1104    0.0000 C   0  0  0  0  0  0  0  0  0  0  0  0
    4.0668   -1.5229    0.0000 F   0  0  0  0  0  0  0  0  0  0  0  0
    2.6378   -1.5229    0.0000 C   0  0  0  0  0  0  0  0  0  0  0  0
    1.9233   -1.1104    0.0000 C   0  0  0  0  0  0  0  0  0  0  0  0
  1  2  1  0
  2  3  2  0
  3  4  1  0
  4  5  2  0
  5  6  1  0
  6  7  2  0
  2  7  1  0
  6  8  1  0
  8  9  1  0
  9 10  2  0
 10 11  1  0
 11 12  2  0
 12 13  1  0
 13 14  2  0
 14 15  1  0
 14 16  1  0
 16 17  2  0
  8 17  1  0
 11 17  1  0
M  END
>  <pIC50>  (80) 
4.47

>  <chembl_id>  (80) 
CHEMBL2348175

>  <canonical_smiles>  (80) 
Nc1nccc(n1)n2ccc3ccc(F)cc23

$$$$
CHEMBL2348176
     RDKit          2D

 16 18  0  0  0  0  0  0  0  0999 V2000
    1.7329   -4.1608    0.0000 N   0  0  0  0  0  0  0  0  0  0  0  0
    1.1809   -3.5477    0.0000 C   0  0  0  0  0  0  0  0  0  0  0  0
    0.3739   -3.7192    0.0000 N   0  0  0  0  0  0  0  0  0  0  0  0
   -0.1781   -3.1062    0.0000 C   0  0  0  0  0  0  0  0  0  0  0  0
    0.0768   -2.3215    0.0000 C   0  0  0  0  0  0  0  0  0  0  0  0
    0.8838   -2.1500    0.0000 C   0  0  0  0  0  0  0  0  0  0  0  0
    1.4358   -2.7631    0.0000 N   0  0  0  0  0  0  0  0  0  0  0  0
    1.1387   -1.3654    0.0000 N   0  0  0  0  0  0  0  0  0  0  0  0
    0.6538   -0.6979    0.0000 C   0  0  0  0  0  0  0  0  0  0  0  0
    1.1387   -0.0305    0.0000 C   0  0  0  0  0  0  0  0  0  0  0  0
    1.9233   -0.2854    0.0000 C   0  0  0  0  0  0  0  0  0  0  0  0
    2.6378    0.1271    0.0000 C   0  0  0  0  0  0  0  0  0  0  0  0
    3.3523   -0.2854    0.0000 C   0  0  0  0  0  0  0  0  0  0  0  0
    3.3523   -1.1104    0.0000 C   0  0  0  0  0  0  0  0  0  0  0  0
    2.6378   -1.5229    0.0000 C   0  0  0  0  0  0  0  0  0  0  0  0
    1.9233   -1.1104    0.0000 C   0  0  0  0  0  0  0  0  0  0  0  0
  1  2  1  0
  2  3  2  0
  3  4  1  0
  4  5  2  0
  5  6  1  0
  6  7  2  0
  2  7  1  0
  6  8  1  0
  8  9  1  0
  9 10  2  0
 10 11  1  0
 11 12  2  0
 12 13  1  0
 13 14  2  0
 14 15  1  0
 15 16  2  0
  8 16  1  0
 11 16  1  0
M  END
>  <pIC50>  (81) 
4.55

>  <chembl_id>  (81) 
CHEMBL2348176

>  <canonical_smiles>  (81) 
Nc1nccc(n1)n2ccc3ccccc23

$$$$
CHEMBL2348180
     RDKit          2D

 18 20  0  0  0  0  0  0  0  0999 V2000
   -0.9851   -3.2777    0.0000 N   0  0  0  0  0  0  0  0  0  0  0  0
   -0.1781   -3.1062    0.0000 C   0  0  0  0  0  0  0  0  0  0  0  0
    0.0768   -2.3215    0.0000 C   0  0  0  0  0  0  0  0  0  0  0  0
    0.8838   -2.1500    0.0000 C   0  0  0  0  0  0  0  0  0  0  0  0
    1.4358   -2.7631    0.0000 C   0  0  0  0  0  0  0  0  0  0  0  0
    1.1809   -3.5477    0.0000 C   0  0  0  0  0  0  0  0  0  0  0  0
    0.3739   -3.7192    0.0000 N   0  0  0  0  0  0  0  0  0  0  0  0
    1.1387   -1.3654    0.0000 N   0  0  0  0  0  0  0  0  0  0  0  0
    0.6538   -0.6979    0.0000 C   0  0  0  0  0  0  0  0  0  0  0  0
    1.1387   -0.0305    0.0000 C   0  0  0  0  0  0  0  0  0  0  0  0
    1.9233   -0.2854    0.0000 C   0  0  0  0  0  0  0  0  0  0  0  0
    2.6378    0.1271    0.0000 C   0  0  0  0  0  0  0  0  0  0  0  0
    3.3523   -0.2854    0.0000 C   0  0  0  0  0  0  0  0  0  0  0  0
    3.3523   -1.1104    0.0000 C   0  0  0  0  0  0  0  0  0  0  0  0
    2.6378   -1.5229    0.0000 C   0  0  0  0  0  0  0  0  0  0  0  0
    1.9233   -1.1104    0.0000 C   0  0  0  0  0  0  0  0  0  0  0  0
    4.0668   -1.5229    0.0000 C   0  0  0  0  0  0  0  0  0  0  0  0
    4.7812   -1.9354    0.0000 N   0  0  0  0  0  0  0  0  0  0  0  0
  1  2  1  0
  2  3  2  0
  3  4  1  0
  4  5  2  0
  5  6  1  0
  6  7  2  0
  2  7  1  0
  4  8  1  0
  8  9  1  0
  9 10  2  0
 10 11  1  0
 11 12  2  0
 12 13  1  0
 13 14  2  0
 14 15  1  0
 15 16  2  0
  8 16  1  0
 11 16  1  0
 14 17  1  0
 17 18  3  0
M  END
>  <pIC50>  (82) 
4.41

>  <chembl_id>  (82) 
CHEMBL2348180

>  <canonical_smiles>  (82) 
Nc1cc(ccn1)n2ccc3ccc(cc23)C#N

$$$$
CHEMBL2348181
     RDKit          2D

 18 20  0  0  0  0  0  0  0  0999 V2000
    1.7329   -4.1608    0.0000 N   0  0  0  0  0  0  0  0  0  0  0  0
    1.1809   -3.5477    0.0000 C   0  0  0  0  0  0  0  0  0  0  0  0
    0.3739   -3.7192    0.0000 C   0  0  0  0  0  0  0  0  0  0  0  0
   -0.1781   -3.1062    0.0000 C   0  0  0  0  0  0  0  0  0  0  0  0
    0.0768   -2.3215    0.0000 C   0  0  0  0  0  0  0  0  0  0  0  0
    0.8838   -2.1500    0.0000 C   0  0  0  0  0  0  0  0  0  0  0  0
    1.4358   -2.7631    0.0000 N   0  0  0  0  0  0  0  0  0  0  0  0
    1.1387   -1.3654    0.0000 N   0  0  0  0  0  0  0  0  0  0  0  0
    0.6538   -0.6979    0.0000 C   0  0  0  0  0  0  0  0  0  0  0  0
    1.1387   -0.0305    0.0000 C   0  0  0  0  0  0  0  0  0  0  0  0
    1.9233   -0.2854    0.0000 C   0  0  0  0  0  0  0  0  0  0  0  0
    2.6378    0.1271    0.0000 C   0  0  0  0  0  0  0  0  0  0  0  0
    3.3523   -0.2854    0.0000 C   0  0  0  0  0  0  0  0  0  0  0  0
    3.3523   -1.1104    0.0000 C   0  0  0  0  0  0  0  0  0  0  0  0
    2.6378   -1.5229    0.0000 C   0  0  0  0  0  0  0  0  0  0  0  0
    1.9233   -1.1104    0.0000 C   0  0  0  0  0  0  0  0  0  0  0  0
    4.0668   -1.5229    0.0000 C   0  0  0  0  0  0  0  0  0  0  0  0
    4.7812   -1.9354    0.0000 N   0  0  0  0  0  0  0  0  0  0  0  0
  1  2  1  0
  2  3  2  0
  3  4  1  0
  4  5  2  0
  5  6  1  0
  6  7  2  0
  2  7  1  0
  6  8  1  0
  8  9  1  0
  9 10  2  0
 10 11  1  0
 11 12  2  0
 12 13  1  0
 13 14  2  0
 14 15  1  0
 15 16  2  0
  8 16  1  0
 11 16  1  0
 14 17  1  0
 17 18  3  0
M  END
>  <pIC50>  (83) 
4.35

>  <chembl_id>  (83) 
CHEMBL2348181

>  <canonical_smiles>  (83) 
Nc1cccc(n1)n2ccc3ccc(cc23)C#N

$$$$
CHEMBL2348182
     RDKit          2D

 19 21  0  0  0  0  0  0  0  0999 V2000
    1.4780   -4.9454    0.0000 C   0  0  0  0  0  0  0  0  0  0  0  0
    1.7329   -4.1608    0.0000 N   0  0  0  0  0  0  0  0  0  0  0  0
    1.1809   -3.5477    0.0000 C   0  0  0  0  0  0  0  0  0  0  0  0
    0.3739   -3.7192    0.0000 N   0  0  0  0  0  0  0  0  0  0  0  0
   -0.1781   -3.1062    0.0000 C   0  0  0  0  0  0  0  0  0  0  0  0
    0.0768   -2.3215    0.0000 C   0  0  0  0  0  0  0  0  0  0  0  0
    0.8838   -2.1500    0.0000 C   0  0  0  0  0  0  0  0  0  0  0  0
    1.4358   -2.7631    0.0000 N   0  0  0  0  0  0  0  0  0  0  0  0
    1.1387   -1.3654    0.0000 N   0  0  0  0  0  0  0  0  0  0  0  0
    0.6538   -0.6979    0.0000 C   0  0  0  0  0  0  0  0  0  0  0  0
    1.1387   -0.0305    0.0000 C   0  0  0  0  0  0  0  0  0  0  0  0
    1.9233   -0.2854    0.0000 C   0  0  0  0  0  0  0  0  0  0  0  0
    2.6378    0.1271    0.0000 C   0  0  0  0  0  0  0  0  0  0  0  0
    3.3523   -0.2854    0.0000 C   0  0  0  0  0  0  0  0  0  0  0  0
    3.3523   -1.1104    0.0000 C   0  0  0  0  0  0  0  0  0  0  0  0
    2.6378   -1.5229    0.0000 C   0  0  0  0  0  0  0  0  0  0  0  0
    1.9233   -1.1104    0.0000 C   0  0  0  0  0  0  0  0  0  0  0  0
    4.0668   -1.5229    0.0000 C   0  0  0  0  0  0  0  0  0  0  0  0
    4.7812   -1.9354    0.0000 N   0  0  0  0  0  0  0  0  0  0  0  0
  1  2  1  0
  2  3  1  0
  3  4  2  0
  4  5  1  0
  5  6  2  0
  6  7  1  0
  7  8  2  0
  3  8  1  0
  7  9  1  0
  9 10  1  0
 10 11  2  0
 11 12  1  0
 12 13  2  0
 13 14  1  0
 14 15  2  0
 15 16  1  0
 16 17  2  0
  9 17  1  0
 12 17  1  0
 15 18  1  0
 18 19  3  0
M  END
>  <pIC50>  (84) 
5.57

>  <chembl_id>  (84) 
CHEMBL2348182

>  <canonical_smiles>  (84) 
CNc1nccc(n1)n2ccc3ccc(cc23)C#N

$$$$
CHEMBL2403108
     RDKit          2D

 38 41  0  0  0  0  0  0  0  0999 V2000
   -2.8579   -1.6500    0.0000 C   0  0  0  0  0  0  0  0  0  0  0  0
   -2.8579   -2.4750    0.0000 C   0  0  0  0  0  0  0  0  0  0  0  0
   -3.5724   -2.8875    0.0000 C   0  0  0  0  0  0  0  0  0  0  0  0
   -2.1434   -2.8875    0.0000 O   0  0  0  0  0  0  0  0  0  0  0  0
   -2.1434   -3.7125    0.0000 C   0  0  0  0  0  0  0  0  0  0  0  0
   -1.4289   -4.1250    0.0000 C   0  0  0  0  0  0  0  0  0  0  0  0
   -1.4289   -4.9500    0.0000 C   0  0  0  0  0  0  0  0  0  0  0  0
   -0.7145   -5.3625    0.0000 C   0  0  0  0  0  0  0  0  0  0  0  0
    0.0000   -4.9500    0.0000 C   0  0  0  0  0  0  0  0  0  0  0  0
    0.7145   -5.3625    0.0000 C   0  0  0  0  0  0  0  0  0  0  0  0
    0.7145   -6.1875    0.0000 N   0  0  0  0  0  0  0  0  0  0  0  0
    0.0000   -6.6000    0.0000 C   0  0  0  0  0  0  0  0  0  0  0  0
   -0.7145   -6.1875    0.0000 C   0  0  0  0  0  0  0  0  0  0  0  0
   -2.1434   -5.3625    0.0000 C   0  0  0  0  0  0  0  0  0  0  0  0
   -2.1434   -6.1875    0.0000 C   0  0  0  0  0  0  0  0  0  0  0  0
   -2.8579   -4.9500    0.0000 C   0  0  0  0  0  0  0  0  0  0  0  0
   -2.8579   -4.1250    0.0000 C   0  0  0  0  0  0  0  0  0  0  0  0
   -3.5724   -3.7125    0.0000 N   0  0  0  0  0  0  0  0  0  0  0  0
   -4.2868   -4.1250    0.0000 C   0  0  0  0  0  0  0  0  0  0  0  0
   -4.2868   -4.9500    0.0000 N   0  0  0  0  0  0  0  0  0  0  0  0
   -5.0013   -5.3625    0.0000 C   0  0  0  0  0  0  0  0  0  0  0  0
   -5.7158   -4.9500    0.0000 C   0  0  0  0  0  0  0  0  0  0  0  0
   -6.4302   -5.3625    0.0000 Cl  0  0  0  0  0  0  0  0  0  0  0  0
   -5.7158   -4.1250    0.0000 C   0  0  0  0  0  0  0  0  0  0  0  0
   -6.4302   -3.7125    0.0000 N   0  0  0  0  0  0  0  0  0  0  0  0
   -7.1447   -4.1250    0.0000 C   0  0  0  0  0  0  0  0  0  0  0  0
   -7.1447   -4.9500    0.0000 C   0  0  0  0  0  0  0  0  0  0  0  0
   -7.8592   -5.3625    0.0000 C   0  0  0  0  0  0  0  0  0  0  0  0
   -8.5737   -4.9500    0.0000 C   0  0  0  0  0  0  0  0  0  0  0  0
   -8.5737   -4.1250    0.0000 C   0  0  0  0  0  0  0  0  0  0  0  0
   -7.8592   -3.7125    0.0000 C   0  0  0  0  0  0  0  0  0  0  0  0
   -7.8592   -2.8875    0.0000 S   0  0  0  0  0  0  0  0  0  0  0  0
   -7.0342   -2.8875    0.0000 O   0  0  0  0  0  0  0  0  0  0  0  0
   -8.6842   -2.8875    0.0000 O   0  0  0  0  0  0  0  0  0  0  0  0
   -7.8592   -2.0625    0.0000 C   0  0  0  0  0  0  0  0  0  0  0  0
   -8.5737   -1.6500    0.0000 C   0  0  0  0  0  0  0  0  0  0  0  0
   -7.1447   -1.6500    0.0000 C   0  0  0  0  0  0  0  0  0  0  0  0
   -5.0013   -3.7125    0.0000 N   0  0  0  0  0  0  0  0  0  0  0  0
  1  2  1  0
  2  3  1  0
  2  4  1  0
  4  5  1  0
  5  6  2  0
  6  7  1  0
  7  8  1  0
  8  9  1  0
  9 10  1  0
 10 11  1  0
 11 12  1  0
 12 13  1  0
  8 13  1  0
  7 14  2  0
 14 15  1  0
 14 16  1  0
 16 17  2  0
  5 17  1  0
 17 18  1  0
 18 19  1  0
 19 20  2  0
 20 21  1  0
 21 22  2  0
 22 23  1  0
 22 24  1  0
 24 25  1  0
 25 26  1  0
 26 27  2  0
 27 28  1  0
 28 29  2  0
 29 30  1  0
 30 31  2  0
 26 31  1  0
 31 32  1  0
 32 33  2  0
 32 34  2  0
 32 35  1  0
 35 36  1  0
 35 37  1  0
 24 38  2  0
 19 38  1  0
M  END
>  <pIC50>  (85) 
5.40

>  <chembl_id>  (85) 
CHEMBL2403108

>  <canonical_smiles>  (85) 
CC(C)Oc1cc(C2CCNCC2)c(C)cc1Nc3ncc(Cl)c(Nc4ccccc4S(=O)(=O)C(C)C)n3

$$$$
CHEMBL2409175
     RDKit          2D

 27 30  0  0  0  0  0  0  0  0999 V2000
    6.2102    6.0604    0.0000 C   0  0  0  0  0  0  0  0  0  0  0  0
    5.4957    5.6479    0.0000 C   0  0  0  0  0  0  0  0  0  0  0  0
    4.7812    6.0604    0.0000 O   0  0  0  0  0  0  0  0  0  0  0  0
    5.4957    4.8229    0.0000 N   0  0  0  0  0  0  0  0  0  0  0  0
    4.7812    4.4104    0.0000 C   0  0  0  0  0  0  0  0  0  0  0  0
    4.7812    3.5854    0.0000 C   0  0  0  0  0  0  0  0  0  0  0  0
    4.0668    3.1729    0.0000 C   0  0  0  0  0  0  0  0  0  0  0  0
    4.0668    2.3479    0.0000 N   0  0  0  0  0  0  0  0  0  0  0  0
    3.3523    1.9354    0.0000 C   0  0  0  0  0  0  0  0  0  0  0  0
    3.3523    1.1104    0.0000 C   0  0  0  0  0  0  0  0  0  0  0  0
    2.6378    0.6979    0.0000 C   0  0  0  0  0  0  0  0  0  0  0  0
    2.6378   -0.1271    0.0000 N   0  0  0  0  0  0  0  0  0  0  0  0
    1.9233   -0.5396    0.0000 C   0  0  0  0  0  0  0  0  0  0  0  0
    1.5108   -1.2540    0.0000 C   0  0  0  0  0  0  0  0  0  0  0  0
    1.0983   -0.5396    0.0000 C   0  0  0  0  0  0  0  0  0  0  0  0
    1.9233    1.1104    0.0000 N   0  0  0  0  0  0  0  0  0  0  0  0
    1.1387    0.8555    0.0000 N   0  0  0  0  0  0  0  0  0  0  0  0
    0.6538    1.5229    0.0000 C   0  0  0  0  0  0  0  0  0  0  0  0
    1.1387    2.1904    0.0000 C   0  0  0  0  0  0  0  0  0  0  0  0
    0.8838    2.9750    0.0000 C   0  0  0  0  0  0  0  0  0  0  0  0
    0.6288    3.7596    0.0000 N   0  0  0  0  0  0  0  0  0  0  0  0
    1.9233    1.9354    0.0000 C   0  0  0  0  0  0  0  0  0  0  0  0
    2.6378    2.3479    0.0000 N   0  0  0  0  0  0  0  0  0  0  0  0
    3.3523    3.5854    0.0000 C   0  0  0  0  0  0  0  0  0  0  0  0
    3.3523    4.4104    0.0000 C   0  0  0  0  0  0  0  0  0  0  0  0
    4.0668    4.8229    0.0000 C   0  0  0  0  0  0  0  0  0  0  0  0
    4.0668    5.6479    0.0000 C   0  0  0  0  0  0  0  0  0  0  0  0
  1  2  1  0
  2  3  2  0
  2  4  1  0
  4  5  1  0
  5  6  2  0
  6  7  1  0
  7  8  1  0
  8  9  1  0
  9 10  1  0
 10 11  2  0
 11 12  1  0
 12 13  1  0
 13 14  1  0
 14 15  1  0
 13 15  1  0
 11 16  1  0
 16 17  1  0
 17 18  2  0
 18 19  1  0
 19 20  1  0
 20 21  3  0
 19 22  2  0
 16 22  1  0
 22 23  1  0
  9 23  2  0
  7 24  2  0
 24 25  1  0
 25 26  2  0
  5 26  1  0
 26 27  1  0
M  END
>  <pIC50>  (86) 
5.14

>  <chembl_id>  (86) 
CHEMBL2409175

>  <canonical_smiles>  (86) 
CC(=O)Nc1cc(Nc2cc(NC3CC3)n4ncc(C#N)c4n2)ccc1C

$$$$
CHEMBL242237
     RDKit          2D

 24 26  0  0  0  0  0  0  0  0999 V2000
    5.7158    0.0000    0.0000 N   0  0  0  0  0  0  0  0  0  0  0  0
    5.0013   -0.4125    0.0000 C   0  0  0  0  0  0  0  0  0  0  0  0
    4.2868    0.0000    0.0000 O   0  0  0  0  0  0  0  0  0  0  0  0
    5.0013   -1.2375    0.0000 C   0  0  0  0  0  0  0  0  0  0  0  0
    5.7158   -1.6500    0.0000 C   0  0  0  0  0  0  0  0  0  0  0  0
    5.7158   -2.4750    0.0000 C   0  0  0  0  0  0  0  0  0  0  0  0
    5.0013   -2.8875    0.0000 C   0  0  0  0  0  0  0  0  0  0  0  0
    4.2868   -2.4750    0.0000 C   0  0  0  0  0  0  0  0  0  0  0  0
    4.2868   -1.6500    0.0000 C   0  0  0  0  0  0  0  0  0  0  0  0
    3.5724   -1.2375    0.0000 N   0  0  0  0  0  0  0  0  0  0  0  0
    2.8579   -1.6500    0.0000 C   0  0  0  0  0  0  0  0  0  0  0  0
    2.8579   -2.4750    0.0000 C   0  0  0  0  0  0  0  0  0  0  0  0
    2.1434   -2.8875    0.0000 C   0  0  0  0  0  0  0  0  0  0  0  0
    1.4289   -2.4750    0.0000 N   0  0  0  0  0  0  0  0  0  0  0  0
    1.4289   -1.6500    0.0000 C   0  0  0  0  0  0  0  0  0  0  0  0
    0.7145   -1.2375    0.0000 N   0  0  0  0  0  0  0  0  0  0  0  0
    0.7145   -0.4125    0.0000 C   0  0  0  0  0  0  0  0  0  0  0  0
    0.0000    0.0000    0.0000 C   0  0  0  0  0  0  0  0  0  0  0  0
    0.0000    0.8250    0.0000 C   0  0  0  0  0  0  0  0  0  0  0  0
    0.7145    1.2375    0.0000 C   0  0  0  0  0  0  0  0  0  0  0  0
    1.4289    0.8250    0.0000 C   0  0  0  0  0  0  0  0  0  0  0  0
    2.1434    1.2375    0.0000 O   0  0  0  0  0  0  0  0  0  0  0  0
    1.4289    0.0000    0.0000 C   0  0  0  0  0  0  0  0  0  0  0  0
    2.1434   -1.2375    0.0000 N   0  0  0  0  0  0  0  0  0  0  0  0
  1  2  1  0
  2  3  2  0
  2  4  1  0
  4  5  2  0
  5  6  1  0
  6  7  2  0
  7  8  1  0
  8  9  2  0
  4  9  1  0
  9 10  1  0
 10 11  1  0
 11 12  2  0
 12 13  1  0
 13 14  2  0
 14 15  1  0
 15 16  1  0
 16 17  1  0
 17 18  2  0
 18 19  1  0
 19 20  2  0
 20 21  1  0
 21 22  1  0
 21 23  2  0
 17 23  1  0
 15 24  2  0
 11 24  1  0
M  END
>  <pIC50>  (87) 
5.57

>  <chembl_id>  (87) 
CHEMBL242237

>  <canonical_smiles>  (87) 
NC(=O)c1ccccc1Nc2ccnc(Nc3cccc(O)c3)n2

$$$$
CHEMBL2426380
     RDKit          2D

 30 33  0  0  0  0  0  0  0  0999 V2000
   -0.7145    4.5375    0.0000 F   0  0  0  0  0  0  0  0  0  0  0  0
   -0.7145    3.7125    0.0000 C   0  0  0  0  0  0  0  0  0  0  0  0
    0.0000    3.3000    0.0000 C   0  0  0  0  0  0  0  0  0  0  0  0
    0.0000    2.4750    0.0000 C   0  0  0  0  0  0  0  0  0  0  0  0
   -0.7145    2.0625    0.0000 C   0  0  0  0  0  0  0  0  0  0  0  0
   -0.7145    1.2375    0.0000 N   0  0  0  0  0  0  0  0  0  0  0  0
    0.0000    0.8250    0.0000 C   0  0  0  0  0  0  0  0  0  0  0  0
    0.7145    1.2375    0.0000 S   0  0  0  0  0  0  0  0  0  0  0  0
    0.0000    0.0000    0.0000 N   0  0  0  0  0  0  0  0  0  0  0  0
    0.7145   -0.4125    0.0000 C   0  0  0  0  0  0  0  0  0  0  0  0
    1.4289    0.0000    0.0000 O   0  0  0  0  0  0  0  0  0  0  0  0
    0.7145   -1.2375    0.0000 C   0  0  0  0  0  0  0  0  0  0  0  0
    1.3819   -1.7224    0.0000 C   0  0  0  0  0  0  0  0  0  0  0  0
    1.1270   -2.5070    0.0000 N   0  0  0  0  0  0  0  0  0  0  0  0
    0.3020   -2.5070    0.0000 N   0  0  0  0  0  0  0  0  0  0  0  0
    0.0470   -1.7224    0.0000 C   0  0  0  0  0  0  0  0  0  0  0  0
   -0.7376   -1.4675    0.0000 C   0  0  0  0  0  0  0  0  0  0  0  0
   -1.3507   -2.0195    0.0000 C   0  0  0  0  0  0  0  0  0  0  0  0
   -2.1353   -1.7646    0.0000 C   0  0  0  0  0  0  0  0  0  0  0  0
   -2.3068   -0.9576    0.0000 C   0  0  0  0  0  0  0  0  0  0  0  0
   -1.6937   -0.4056    0.0000 C   0  0  0  0  0  0  0  0  0  0  0  0
   -0.9091   -0.6605    0.0000 C   0  0  0  0  0  0  0  0  0  0  0  0
    1.6119   -3.1745    0.0000 C   0  0  0  0  0  0  0  0  0  0  0  0
    2.4324   -3.0882    0.0000 C   0  0  0  0  0  0  0  0  0  0  0  0
    2.9173   -3.7557    0.0000 C   0  0  0  0  0  0  0  0  0  0  0  0
    2.5817   -4.5094    0.0000 C   0  0  0  0  0  0  0  0  0  0  0  0
    1.7613   -4.5956    0.0000 C   0  0  0  0  0  0  0  0  0  0  0  0
    1.2763   -3.9282    0.0000 C   0  0  0  0  0  0  0  0  0  0  0  0
   -1.4289    2.4750    0.0000 C   0  0  0  0  0  0  0  0  0  0  0  0
   -1.4289    3.3000    0.0000 C   0  0  0  0  0  0  0  0  0  0  0  0
  1  2  1  0
  2  3  2  0
  3  4  1  0
  4  5  2  0
  5  6  1  0
  6  7  1  0
  7  8  2  0
  7  9  1  0
  9 10  1  0
 10 11  2  0
 10 12  1  0
 12 13  2  0
 13 14  1  0
 14 15  1  0
 15 16  2  0
 12 16  1  0
 16 17  1  0
 17 18  2  0
 18 19  1  0
 19 20  2  0
 20 21  1  0
 21 22  2  0
 17 22  1  0
 14 23  1  0
 23 24  2  0
 24 25  1  0
 25 26  2  0
 26 27  1  0
 27 28  2  0
 23 28  1  0
  5 29  1  0
 29 30  2  0
  2 30  1  0
M  END
>  <pIC50>  (88) 
7.12

>  <chembl_id>  (88) 
CHEMBL2426380

>  <canonical_smiles>  (88) 
Fc1ccc(NC(=S)NC(=O)c2cn(nc2c3ccccc3)c4ccccc4)cc1

$$$$
CHEMBL2426381
     RDKit          2D

 30 33  0  0  0  0  0  0  0  0999 V2000
   -0.7145    4.5375    0.0000 Cl  0  0  0  0  0  0  0  0  0  0  0  0
   -0.7145    3.7125    0.0000 C   0  0  0  0  0  0  0  0  0  0  0  0
    0.0000    3.3000    0.0000 C   0  0  0  0  0  0  0  0  0  0  0  0
    0.0000    2.4750    0.0000 C   0  0  0  0  0  0  0  0  0  0  0  0
   -0.7145    2.0625    0.0000 C   0  0  0  0  0  0  0  0  0  0  0  0
   -0.7145    1.2375    0.0000 N   0  0  0  0  0  0  0  0  0  0  0  0
    0.0000    0.8250    0.0000 C   0  0  0  0  0  0  0  0  0  0  0  0
    0.7145    1.2375    0.0000 S   0  0  0  0  0  0  0  0  0  0  0  0
    0.0000    0.0000    0.0000 N   0  0  0  0  0  0  0  0  0  0  0  0
    0.7145   -0.4125    0.0000 C   0  0  0  0  0  0  0  0  0  0  0  0
    1.4289    0.0000    0.0000 O   0  0  0  0  0  0  0  0  0  0  0  0
    0.7145   -1.2375    0.0000 C   0  0  0  0  0  0  0  0  0  0  0  0
    1.3819   -1.7224    0.0000 C   0  0  0  0  0  0  0  0  0  0  0  0
    1.1270   -2.5070    0.0000 N   0  0  0  0  0  0  0  0  0  0  0  0
    0.3020   -2.5070    0.0000 N   0  0  0  0  0  0  0  0  0  0  0  0
    0.0470   -1.7224    0.0000 C   0  0  0  0  0  0  0  0  0  0  0  0
   -0.7376   -1.4675    0.0000 C   0  0  0  0  0  0  0  0  0  0  0  0
   -1.3507   -2.0195    0.0000 C   0  0  0  0  0  0  0  0  0  0  0  0
   -2.1353   -1.7646    0.0000 C   0  0  0  0  0  0  0  0  0  0  0  0
   -2.3068   -0.9576    0.0000 C   0  0  0  0  0  0  0  0  0  0  0  0
   -1.6937   -0.4056    0.0000 C   0  0  0  0  0  0  0  0  0  0  0  0
   -0.9091   -0.6605    0.0000 C   0  0  0  0  0  0  0  0  0  0  0  0
    1.6119   -3.1745    0.0000 C   0  0  0  0  0  0  0  0  0  0  0  0
    2.4324   -3.0882    0.0000 C   0  0  0  0  0  0  0  0  0  0  0  0
    2.9173   -3.7557    0.0000 C   0  0  0  0  0  0  0  0  0  0  0  0
    2.5817   -4.5094    0.0000 C   0  0  0  0  0  0  0  0  0  0  0  0
    1.7613   -4.5956    0.0000 C   0  0  0  0  0  0  0  0  0  0  0  0
    1.2763   -3.9282    0.0000 C   0  0  0  0  0  0  0  0  0  0  0  0
   -1.4289    2.4750    0.0000 C   0  0  0  0  0  0  0  0  0  0  0  0
   -1.4289    3.3000    0.0000 C   0  0  0  0  0  0  0  0  0  0  0  0
  1  2  1  0
  2  3  2  0
  3  4  1  0
  4  5  2  0
  5  6  1  0
  6  7  1  0
  7  8  2  0
  7  9  1  0
  9 10  1  0
 10 11  2  0
 10 12  1  0
 12 13  2  0
 13 14  1  0
 14 15  1  0
 15 16  2  0
 12 16  1  0
 16 17  1  0
 17 18  2  0
 18 19  1  0
 19 20  2  0
 20 21  1  0
 21 22  2  0
 17 22  1  0
 14 23  1  0
 23 24  2  0
 24 25  1  0
 25 26  2  0
 26 27  1  0
 27 28  2  0
 23 28  1  0
  5 29  1  0
 29 30  2  0
  2 30  1  0
M  END
>  <pIC50>  (89) 
7.15

>  <chembl_id>  (89) 
CHEMBL2426381

>  <canonical_smiles>  (89) 
Clc1ccc(NC(=S)NC(=O)c2cn(nc2c3ccccc3)c4ccccc4)cc1

$$$$
CHEMBL2426382
     RDKit          2D

 31 34  0  0  0  0  0  0  0  0999 V2000
    2.1434    4.5375    0.0000 C   0  0  0  0  0  0  0  0  0  0  0  0
    2.1434    3.7125    0.0000 C   0  0  0  0  0  0  0  0  0  0  0  0
    2.8579    3.3000    0.0000 C   0  0  0  0  0  0  0  0  0  0  0  0
    2.8579    2.4750    0.0000 C   0  0  0  0  0  0  0  0  0  0  0  0
    2.1434    2.0625    0.0000 C   0  0  0  0  0  0  0  0  0  0  0  0
    2.1434    1.2375    0.0000 N   0  0  0  0  0  0  0  0  0  0  0  0
    1.4289    0.8250    0.0000 C   0  0  0  0  0  0  0  0  0  0  0  0
    0.7145    1.2375    0.0000 S   0  0  0  0  0  0  0  0  0  0  0  0
    1.4289    0.0000    0.0000 N   0  0  0  0  0  0  0  0  0  0  0  0
    0.7145   -0.4125    0.0000 C   0  0  0  0  0  0  0  0  0  0  0  0
    0.0000    0.0000    0.0000 O   0  0  0  0  0  0  0  0  0  0  0  0
    0.7145   -1.2375    0.0000 C   0  0  0  0  0  0  0  0  0  0  0  0
    1.3819   -1.7224    0.0000 C   0  0  0  0  0  0  0  0  0  0  0  0
    1.1270   -2.5070    0.0000 N   0  0  0  0  0  0  0  0  0  0  0  0
    0.3020   -2.5070    0.0000 N   0  0  0  0  0  0  0  0  0  0  0  0
    0.0470   -1.7224    0.0000 C   0  0  0  0  0  0  0  0  0  0  0  0
   -0.7376   -1.4675    0.0000 C   0  0  0  0  0  0  0  0  0  0  0  0
   -1.3507   -2.0195    0.0000 C   0  0  0  0  0  0  0  0  0  0  0  0
   -2.1353   -1.7646    0.0000 C   0  0  0  0  0  0  0  0  0  0  0  0
   -2.3068   -0.9576    0.0000 C   0  0  0  0  0  0  0  0  0  0  0  0
   -3.0915   -0.7027    0.0000 C   0  0  0  0  0  0  0  0  0  0  0  0
   -1.6937   -0.4056    0.0000 C   0  0  0  0  0  0  0  0  0  0  0  0
   -0.9091   -0.6605    0.0000 C   0  0  0  0  0  0  0  0  0  0  0  0
    1.6119   -3.1745    0.0000 C   0  0  0  0  0  0  0  0  0  0  0  0
    2.4324   -3.0882    0.0000 C   0  0  0  0  0  0  0  0  0  0  0  0
    2.9173   -3.7557    0.0000 C   0  0  0  0  0  0  0  0  0  0  0  0
    2.5817   -4.5094    0.0000 C   0  0  0  0  0  0  0  0  0  0  0  0
    1.7613   -4.5956    0.0000 C   0  0  0  0  0  0  0  0  0  0  0  0
    1.2763   -3.9282    0.0000 C   0  0  0  0  0  0  0  0  0  0  0  0
    1.4289    2.4750    0.0000 C   0  0  0  0  0  0  0  0  0  0  0  0
    1.4289    3.3000    0.0000 C   0  0  0  0  0  0  0  0  0  0  0  0
  1  2  1  0
  2  3  2  0
  3  4  1  0
  4  5  2  0
  5  6  1  0
  6  7  1  0
  7  8  2  0
  7  9  1  0
  9 10  1  0
 10 11  2  0
 10 12  1  0
 12 13  2  0
 13 14  1  0
 14 15  1  0
 15 16  2  0
 12 16  1  0
 16 17  1  0
 17 18  2  0
 18 19  1  0
 19 20  2  0
 20 21  1  0
 20 22  1  0
 22 23  2  0
 17 23  1  0
 14 24  1  0
 24 25  2  0
 25 26  1  0
 26 27  2  0
 27 28  1  0
 28 29  2  0
 24 29  1  0
  5 30  1  0
 30 31  2  0
  2 31  1  0
M  END
>  <pIC50>  (90) 
7.28

>  <chembl_id>  (90) 
CHEMBL2426382

>  <canonical_smiles>  (90) 
Cc1ccc(NC(=S)NC(=O)c2cn(nc2c3ccc(C)cc3)c4ccccc4)cc1

$$$$
CHEMBL2426383
     RDKit          2D

 32 35  0  0  0  0  0  0  0  0999 V2000
    5.7158   -2.4750    0.0000 C   0  0  0  0  0  0  0  0  0  0  0  0
    5.0013   -2.8875    0.0000 O   0  0  0  0  0  0  0  0  0  0  0  0
    4.2868   -2.4750    0.0000 C   0  0  0  0  0  0  0  0  0  0  0  0
    3.5724   -2.8875    0.0000 C   0  0  0  0  0  0  0  0  0  0  0  0
    2.8579   -2.4750    0.0000 C   0  0  0  0  0  0  0  0  0  0  0  0
    2.8579   -1.6500    0.0000 C   0  0  0  0  0  0  0  0  0  0  0  0
    2.1434   -1.2375    0.0000 N   0  0  0  0  0  0  0  0  0  0  0  0
    2.1434   -0.4125    0.0000 C   0  0  0  0  0  0  0  0  0  0  0  0
    2.8579    0.0000    0.0000 S   0  0  0  0  0  0  0  0  0  0  0  0
    1.4289    0.0000    0.0000 N   0  0  0  0  0  0  0  0  0  0  0  0
    0.7145   -0.4125    0.0000 C   0  0  0  0  0  0  0  0  0  0  0  0
    0.0000    0.0000    0.0000 O   0  0  0  0  0  0  0  0  0  0  0  0
    0.7145   -1.2375    0.0000 C   0  0  0  0  0  0  0  0  0  0  0  0
    1.3819   -1.7224    0.0000 C   0  0  0  0  0  0  0  0  0  0  0  0
    1.1270   -2.5070    0.0000 N   0  0  0  0  0  0  0  0  0  0  0  0
    0.3020   -2.5070    0.0000 N   0  0  0  0  0  0  0  0  0  0  0  0
    0.0470   -1.7224    0.0000 C   0  0  0  0  0  0  0  0  0  0  0  0
   -0.7376   -1.4675    0.0000 C   0  0  0  0  0  0  0  0  0  0  0  0
   -1.3507   -2.0195    0.0000 C   0  0  0  0  0  0  0  0  0  0  0  0
   -2.1353   -1.7646    0.0000 C   0  0  0  0  0  0  0  0  0  0  0  0
   -2.3068   -0.9576    0.0000 C   0  0  0  0  0  0  0  0  0  0  0  0
   -3.0915   -0.7027    0.0000 C   0  0  0  0  0  0  0  0  0  0  0  0
   -1.6937   -0.4056    0.0000 C   0  0  0  0  0  0  0  0  0  0  0  0
   -0.9091   -0.6605    0.0000 C   0  0  0  0  0  0  0  0  0  0  0  0
    1.6119   -3.1745    0.0000 C   0  0  0  0  0  0  0  0  0  0  0  0
    2.4324   -3.0882    0.0000 C   0  0  0  0  0  0  0  0  0  0  0  0
    2.9173   -3.7557    0.0000 C   0  0  0  0  0  0  0  0  0  0  0  0
    2.5817   -4.5094    0.0000 C   0  0  0  0  0  0  0  0  0  0  0  0
    1.7613   -4.5956    0.0000 C   0  0  0  0  0  0  0  0  0  0  0  0
    1.2763   -3.9282    0.0000 C   0  0  0  0  0  0  0  0  0  0  0  0
    3.5724   -1.2375    0.0000 C   0  0  0  0  0  0  0  0  0  0  0  0
    4.2868   -1.6500    0.0000 C   0  0  0  0  0  0  0  0  0  0  0  0
  1  2  1  0
  2  3  1  0
  3  4  2  0
  4  5  1  0
  5  6  2  0
  6  7  1  0
  7  8  1  0
  8  9  2  0
  8 10  1  0
 10 11  1  0
 11 12  2  0
 11 13  1  0
 13 14  2  0
 14 15  1  0
 15 16  1  0
 16 17  2  0
 13 17  1  0
 17 18  1  0
 18 19  2  0
 19 20  1  0
 20 21  2  0
 21 22  1  0
 21 23  1  0
 23 24  2  0
 18 24  1  0
 15 25  1  0
 25 26  2  0
 26 27  1  0
 27 28  2  0
 28 29  1  0
 29 30  2  0
 25 30  1  0
  6 31  1  0
 31 32  2  0
  3 32  1  0
M  END
>  <pIC50>  (91) 
7.33

>  <chembl_id>  (91) 
CHEMBL2426383

>  <canonical_smiles>  (91) 
COc1ccc(NC(=S)NC(=O)c2cn(nc2c3ccc(C)cc3)c4ccccc4)cc1

$$$$
CHEMBL2426384
     RDKit          2D

 31 34  0  0  0  0  0  0  0  0999 V2000
    0.7145    2.0625    0.0000 C   0  0  0  0  0  0  0  0  0  0  0  0
    0.7145    1.2375    0.0000 C   0  0  0  0  0  0  0  0  0  0  0  0
    1.4289    0.8250    0.0000 C   0  0  0  0  0  0  0  0  0  0  0  0
    1.4289    0.0000    0.0000 C   0  0  0  0  0  0  0  0  0  0  0  0
    0.7145   -0.4125    0.0000 C   0  0  0  0  0  0  0  0  0  0  0  0
    0.0000    0.0000    0.0000 C   0  0  0  0  0  0  0  0  0  0  0  0
    0.0000    0.8250    0.0000 C   0  0  0  0  0  0  0  0  0  0  0  0
    0.7145   -1.2375    0.0000 C   0  0  0  0  0  0  0  0  0  0  0  0
    1.3819   -1.7224    0.0000 N   0  0  0  0  0  0  0  0  0  0  0  0
    1.1270   -2.5070    0.0000 N   0  0  0  0  0  0  0  0  0  0  0  0
    0.3020   -2.5070    0.0000 C   0  0  0  0  0  0  0  0  0  0  0  0
    0.0470   -1.7224    0.0000 C   0  0  0  0  0  0  0  0  0  0  0  0
   -0.7376   -1.4675    0.0000 C   0  0  0  0  0  0  0  0  0  0  0  0
   -0.9091   -0.6605    0.0000 O   0  0  0  0  0  0  0  0  0  0  0  0
   -1.3507   -2.0195    0.0000 N   0  0  0  0  0  0  0  0  0  0  0  0
   -2.1353   -1.7646    0.0000 C   0  0  0  0  0  0  0  0  0  0  0  0
   -2.3068   -0.9576    0.0000 S   0  0  0  0  0  0  0  0  0  0  0  0
   -2.7484   -2.3166    0.0000 N   0  0  0  0  0  0  0  0  0  0  0  0
   -3.5330   -2.0617    0.0000 C   0  0  0  0  0  0  0  0  0  0  0  0
   -4.1461   -2.6137    0.0000 C   0  0  0  0  0  0  0  0  0  0  0  0
   -4.9307   -2.3588    0.0000 C   0  0  0  0  0  0  0  0  0  0  0  0
   -5.1023   -1.5518    0.0000 C   0  0  0  0  0  0  0  0  0  0  0  0
   -5.8869   -1.2969    0.0000 F   0  0  0  0  0  0  0  0  0  0  0  0
   -4.4892   -0.9998    0.0000 C   0  0  0  0  0  0  0  0  0  0  0  0
   -3.7045   -1.2547    0.0000 C   0  0  0  0  0  0  0  0  0  0  0  0
    1.6119   -3.1745    0.0000 C   0  0  0  0  0  0  0  0  0  0  0  0
    2.4324   -3.0882    0.0000 C   0  0  0  0  0  0  0  0  0  0  0  0
    2.9173   -3.7557    0.0000 C   0  0  0  0  0  0  0  0  0  0  0  0
    2.5817   -4.5094    0.0000 C   0  0  0  0  0  0  0  0  0  0  0  0
    1.7613   -4.5956    0.0000 C   0  0  0  0  0  0  0  0  0  0  0  0
    1.2763   -3.9282    0.0000 C   0  0  0  0  0  0  0  0  0  0  0  0
  1  2  1  0
  2  3  2  0
  3  4  1  0
  4  5  2  0
  5  6  1  0
  6  7  2  0
  2  7  1  0
  5  8  1  0
  8  9  2  0
  9 10  1  0
 10 11  1  0
 11 12  2  0
  8 12  1  0
 12 13  1  0
 13 14  2  0
 13 15  1  0
 15 16  1  0
 16 17  2  0
 16 18  1  0
 18 19  1  0
 19 20  2  0
 20 21  1  0
 21 22  2  0
 22 23  1  0
 22 24  1  0
 24 25  2  0
 19 25  1  0
 10 26  1  0
 26 27  2  0
 27 28  1  0
 28 29  2  0
 29 30  1  0
 30 31  2  0
 26 31  1  0
M  END
>  <pIC50>  (92) 
7.39

>  <chembl_id>  (92) 
CHEMBL2426384

>  <canonical_smiles>  (92) 
Cc1ccc(cc1)c2nn(cc2C(=O)NC(=S)Nc3ccc(F)cc3)c4ccccc4

$$$$
CHEMBL2426385
     RDKit          2D

 31 34  0  0  0  0  0  0  0  0999 V2000
    0.7145    2.0625    0.0000 C   0  0  0  0  0  0  0  0  0  0  0  0
    0.7145    1.2375    0.0000 C   0  0  0  0  0  0  0  0  0  0  0  0
    1.4289    0.8250    0.0000 C   0  0  0  0  0  0  0  0  0  0  0  0
    1.4289    0.0000    0.0000 C   0  0  0  0  0  0  0  0  0  0  0  0
    0.7145   -0.4125    0.0000 C   0  0  0  0  0  0  0  0  0  0  0  0
    0.0000    0.0000    0.0000 C   0  0  0  0  0  0  0  0  0  0  0  0
    0.0000    0.8250    0.0000 C   0  0  0  0  0  0  0  0  0  0  0  0
    0.7145   -1.2375    0.0000 C   0  0  0  0  0  0  0  0  0  0  0  0
    1.3819   -1.7224    0.0000 N   0  0  0  0  0  0  0  0  0  0  0  0
    1.1270   -2.5070    0.0000 N   0  0  0  0  0  0  0  0  0  0  0  0
    0.3020   -2.5070    0.0000 C   0  0  0  0  0  0  0  0  0  0  0  0
    0.0470   -1.7224    0.0000 C   0  0  0  0  0  0  0  0  0  0  0  0
   -0.7376   -1.4675    0.0000 C   0  0  0  0  0  0  0  0  0  0  0  0
   -0.9091   -0.6605    0.0000 O   0  0  0  0  0  0  0  0  0  0  0  0
   -1.3507   -2.0195    0.0000 N   0  0  0  0  0  0  0  0  0  0  0  0
   -2.1353   -1.7646    0.0000 C   0  0  0  0  0  0  0  0  0  0  0  0
   -2.3068   -0.9576    0.0000 S   0  0  0  0  0  0  0  0  0  0  0  0
   -2.7484   -2.3166    0.0000 N   0  0  0  0  0  0  0  0  0  0  0  0
   -3.5330   -2.0617    0.0000 C   0  0  0  0  0  0  0  0  0  0  0  0
   -4.1461   -2.6137    0.0000 C   0  0  0  0  0  0  0  0  0  0  0  0
   -4.9307   -2.3588    0.0000 C   0  0  0  0  0  0  0  0  0  0  0  0
   -5.1023   -1.5518    0.0000 C   0  0  0  0  0  0  0  0  0  0  0  0
   -5.8869   -1.2969    0.0000 Cl  0  0  0  0  0  0  0  0  0  0  0  0
   -4.4892   -0.9998    0.0000 C   0  0  0  0  0  0  0  0  0  0  0  0
   -3.7045   -1.2547    0.0000 C   0  0  0  0  0  0  0  0  0  0  0  0
    1.6119   -3.1745    0.0000 C   0  0  0  0  0  0  0  0  0  0  0  0
    2.4324   -3.0882    0.0000 C   0  0  0  0  0  0  0  0  0  0  0  0
    2.9173   -3.7557    0.0000 C   0  0  0  0  0  0  0  0  0  0  0  0
    2.5817   -4.5094    0.0000 C   0  0  0  0  0  0  0  0  0  0  0  0
    1.7613   -4.5956    0.0000 C   0  0  0  0  0  0  0  0  0  0  0  0
    1.2763   -3.9282    0.0000 C   0  0  0  0  0  0  0  0  0  0  0  0
  1  2  1  0
  2  3  2  0
  3  4  1  0
  4  5  2  0
  5  6  1  0
  6  7  2  0
  2  7  1  0
  5  8  1  0
  8  9  2  0
  9 10  1  0
 10 11  1  0
 11 12  2  0
  8 12  1  0
 12 13  1  0
 13 14  2  0
 13 15  1  0
 15 16  1  0
 16 17  2  0
 16 18  1  0
 18 19  1  0
 19 20  2  0
 20 21  1  0
 21 22  2  0
 22 23  1  0
 22 24  1  0
 24 25  2  0
 19 25  1  0
 10 26  1  0
 26 27  2  0
 27 28  1  0
 28 29  2  0
 29 30  1  0
 30 31  2  0
 26 31  1  0
M  END
>  <pIC50>  (93) 
7.20

>  <chembl_id>  (93) 
CHEMBL2426385

>  <canonical_smiles>  (93) 
Cc1ccc(cc1)c2nn(cc2C(=O)NC(=S)Nc3ccc(Cl)cc3)c4ccccc4

$$$$
CHEMBL2426386
     RDKit          2D

 31 34  0  0  0  0  0  0  0  0999 V2000
    2.1434    4.5375    0.0000 C   0  0  0  0  0  0  0  0  0  0  0  0
    2.1434    3.7125    0.0000 C   0  0  0  0  0  0  0  0  0  0  0  0
    2.8579    3.3000    0.0000 C   0  0  0  0  0  0  0  0  0  0  0  0
    2.8579    2.4750    0.0000 C   0  0  0  0  0  0  0  0  0  0  0  0
    2.1434    2.0625    0.0000 C   0  0  0  0  0  0  0  0  0  0  0  0
    2.1434    1.2375    0.0000 N   0  0  0  0  0  0  0  0  0  0  0  0
    1.4289    0.8250    0.0000 C   0  0  0  0  0  0  0  0  0  0  0  0
    0.7145    1.2375    0.0000 S   0  0  0  0  0  0  0  0  0  0  0  0
    1.4289    0.0000    0.0000 N   0  0  0  0  0  0  0  0  0  0  0  0
    0.7145   -0.4125    0.0000 C   0  0  0  0  0  0  0  0  0  0  0  0
    0.0000    0.0000    0.0000 O   0  0  0  0  0  0  0  0  0  0  0  0
    0.7145   -1.2375    0.0000 C   0  0  0  0  0  0  0  0  0  0  0  0
    1.3819   -1.7224    0.0000 C   0  0  0  0  0  0  0  0  0  0  0  0
    1.1270   -2.5070    0.0000 N   0  0  0  0  0  0  0  0  0  0  0  0
    0.3020   -2.5070    0.0000 N   0  0  0  0  0  0  0  0  0  0  0  0
    0.0470   -1.7224    0.0000 C   0  0  0  0  0  0  0  0  0  0  0  0
   -0.7376   -1.4675    0.0000 C   0  0  0  0  0  0  0  0  0  0  0  0
   -1.3507   -2.0195    0.0000 C   0  0  0  0  0  0  0  0  0  0  0  0
   -2.1353   -1.7646    0.0000 C   0  0  0  0  0  0  0  0  0  0  0  0
   -2.3068   -0.9576    0.0000 C   0  0  0  0  0  0  0  0  0  0  0  0
   -3.0915   -0.7027    0.0000 Cl  0  0  0  0  0  0  0  0  0  0  0  0
   -1.6937   -0.4056    0.0000 C   0  0  0  0  0  0  0  0  0  0  0  0
   -0.9091   -0.6605    0.0000 C   0  0  0  0  0  0  0  0  0  0  0  0
    1.6119   -3.1745    0.0000 C   0  0  0  0  0  0  0  0  0  0  0  0
    2.4324   -3.0882    0.0000 C   0  0  0  0  0  0  0  0  0  0  0  0
    2.9173   -3.7557    0.0000 C   0  0  0  0  0  0  0  0  0  0  0  0
    2.5817   -4.5094    0.0000 C   0  0  0  0  0  0  0  0  0  0  0  0
    1.7613   -4.5956    0.0000 C   0  0  0  0  0  0  0  0  0  0  0  0
    1.2763   -3.9282    0.0000 C   0  0  0  0  0  0  0  0  0  0  0  0
    1.4289    2.4750    0.0000 C   0  0  0  0  0  0  0  0  0  0  0  0
    1.4289    3.3000    0.0000 C   0  0  0  0  0  0  0  0  0  0  0  0
  1  2  1  0
  2  3  2  0
  3  4  1  0
  4  5  2  0
  5  6  1  0
  6  7  1  0
  7  8  2  0
  7  9  1  0
  9 10  1  0
 10 11  2  0
 10 12  1  0
 12 13  2  0
 13 14  1  0
 14 15  1  0
 15 16  2  0
 12 16  1  0
 16 17  1  0
 17 18  2  0
 18 19  1  0
 19 20  2  0
 20 21  1  0
 20 22  1  0
 22 23  2  0
 17 23  1  0
 14 24  1  0
 24 25  2  0
 25 26  1  0
 26 27  2  0
 27 28  1  0
 28 29  2  0
 24 29  1  0
  5 30  1  0
 30 31  2  0
  2 31  1  0
M  END
>  <pIC50>  (94) 
7.38

>  <chembl_id>  (94) 
CHEMBL2426386

>  <canonical_smiles>  (94) 
Cc1ccc(NC(=S)NC(=O)c2cn(nc2c3ccc(Cl)cc3)c4ccccc4)cc1

$$$$
CHEMBL2426387
     RDKit          2D

 32 35  0  0  0  0  0  0  0  0999 V2000
    5.7158   -2.4750    0.0000 C   0  0  0  0  0  0  0  0  0  0  0  0
    5.0013   -2.8875    0.0000 O   0  0  0  0  0  0  0  0  0  0  0  0
    4.2868   -2.4750    0.0000 C   0  0  0  0  0  0  0  0  0  0  0  0
    3.5724   -2.8875    0.0000 C   0  0  0  0  0  0  0  0  0  0  0  0
    2.8579   -2.4750    0.0000 C   0  0  0  0  0  0  0  0  0  0  0  0
    2.8579   -1.6500    0.0000 C   0  0  0  0  0  0  0  0  0  0  0  0
    2.1434   -1.2375    0.0000 N   0  0  0  0  0  0  0  0  0  0  0  0
    2.1434   -0.4125    0.0000 C   0  0  0  0  0  0  0  0  0  0  0  0
    2.8579    0.0000    0.0000 S   0  0  0  0  0  0  0  0  0  0  0  0
    1.4289    0.0000    0.0000 N   0  0  0  0  0  0  0  0  0  0  0  0
    0.7145   -0.4125    0.0000 C   0  0  0  0  0  0  0  0  0  0  0  0
    0.0000    0.0000    0.0000 O   0  0  0  0  0  0  0  0  0  0  0  0
    0.7145   -1.2375    0.0000 C   0  0  0  0  0  0  0  0  0  0  0  0
    1.3819   -1.7224    0.0000 C   0  0  0  0  0  0  0  0  0  0  0  0
    1.1270   -2.5070    0.0000 N   0  0  0  0  0  0  0  0  0  0  0  0
    0.3020   -2.5070    0.0000 N   0  0  0  0  0  0  0  0  0  0  0  0
    0.0470   -1.7224    0.0000 C   0  0  0  0  0  0  0  0  0  0  0  0
   -0.7376   -1.4675    0.0000 C   0  0  0  0  0  0  0  0  0  0  0  0
   -1.3507   -2.0195    0.0000 C   0  0  0  0  0  0  0  0  0  0  0  0
   -2.1353   -1.7646    0.0000 C   0  0  0  0  0  0  0  0  0  0  0  0
   -2.3068   -0.9576    0.0000 C   0  0  0  0  0  0  0  0  0  0  0  0
   -3.0915   -0.7027    0.0000 Cl  0  0  0  0  0  0  0  0  0  0  0  0
   -1.6937   -0.4056    0.0000 C   0  0  0  0  0  0  0  0  0  0  0  0
   -0.9091   -0.6605    0.0000 C   0  0  0  0  0  0  0  0  0  0  0  0
    1.6119   -3.1745    0.0000 C   0  0  0  0  0  0  0  0  0  0  0  0
    2.4324   -3.0882    0.0000 C   0  0  0  0  0  0  0  0  0  0  0  0
    2.9173   -3.7557    0.0000 C   0  0  0  0  0  0  0  0  0  0  0  0
    2.5817   -4.5094    0.0000 C   0  0  0  0  0  0  0  0  0  0  0  0
    1.7613   -4.5956    0.0000 C   0  0  0  0  0  0  0  0  0  0  0  0
    1.2763   -3.9282    0.0000 C   0  0  0  0  0  0  0  0  0  0  0  0
    3.5724   -1.2375    0.0000 C   0  0  0  0  0  0  0  0  0  0  0  0
    4.2868   -1.6500    0.0000 C   0  0  0  0  0  0  0  0  0  0  0  0
  1  2  1  0
  2  3  1  0
  3  4  2  0
  4  5  1  0
  5  6  2  0
  6  7  1  0
  7  8  1  0
  8  9  2  0
  8 10  1  0
 10 11  1  0
 11 12  2  0
 11 13  1  0
 13 14  2  0
 14 15  1  0
 15 16  1  0
 16 17  2  0
 13 17  1  0
 17 18  1  0
 18 19  2  0
 19 20  1  0
 20 21  2  0
 21 22  1  0
 21 23  1  0
 23 24  2  0
 18 24  1  0
 15 25  1  0
 25 26  2  0
 26 27  1  0
 27 28  2  0
 28 29  1  0
 29 30  2  0
 25 30  1  0
  6 31  1  0
 31 32  2  0
  3 32  1  0
M  END
>  <pIC50>  (95) 
7.43

>  <chembl_id>  (95) 
CHEMBL2426387

>  <canonical_smiles>  (95) 
COc1ccc(NC(=S)NC(=O)c2cn(nc2c3ccc(Cl)cc3)c4ccccc4)cc1

$$$$
CHEMBL2426388
     RDKit          2D

 31 34  0  0  0  0  0  0  0  0999 V2000
    2.1434    4.5375    0.0000 F   0  0  0  0  0  0  0  0  0  0  0  0
    2.1434    3.7125    0.0000 C   0  0  0  0  0  0  0  0  0  0  0  0
    2.8579    3.3000    0.0000 C   0  0  0  0  0  0  0  0  0  0  0  0
    2.8579    2.4750    0.0000 C   0  0  0  0  0  0  0  0  0  0  0  0
    2.1434    2.0625    0.0000 C   0  0  0  0  0  0  0  0  0  0  0  0
    2.1434    1.2375    0.0000 N   0  0  0  0  0  0  0  0  0  0  0  0
    1.4289    0.8250    0.0000 C   0  0  0  0  0  0  0  0  0  0  0  0
    0.7145    1.2375    0.0000 S   0  0  0  0  0  0  0  0  0  0  0  0
    1.4289    0.0000    0.0000 N   0  0  0  0  0  0  0  0  0  0  0  0
    0.7145   -0.4125    0.0000 C   0  0  0  0  0  0  0  0  0  0  0  0
    0.0000    0.0000    0.0000 O   0  0  0  0  0  0  0  0  0  0  0  0
    0.7145   -1.2375    0.0000 C   0  0  0  0  0  0  0  0  0  0  0  0
    1.3819   -1.7224    0.0000 C   0  0  0  0  0  0  0  0  0  0  0  0
    1.1270   -2.5070    0.0000 N   0  0  0  0  0  0  0  0  0  0  0  0
    0.3020   -2.5070    0.0000 N   0  0  0  0  0  0  0  0  0  0  0  0
    0.0470   -1.7224    0.0000 C   0  0  0  0  0  0  0  0  0  0  0  0
   -0.7376   -1.4675    0.0000 C   0  0  0  0  0  0  0  0  0  0  0  0
   -1.3507   -2.0195    0.0000 C   0  0  0  0  0  0  0  0  0  0  0  0
   -2.1353   -1.7646    0.0000 C   0  0  0  0  0  0  0  0  0  0  0  0
   -2.3068   -0.9576    0.0000 C   0  0  0  0  0  0  0  0  0  0  0  0
   -3.0915   -0.7027    0.0000 Cl  0  0  0  0  0  0  0  0  0  0  0  0
   -1.6937   -0.4056    0.0000 C   0  0  0  0  0  0  0  0  0  0  0  0
   -0.9091   -0.6605    0.0000 C   0  0  0  0  0  0  0  0  0  0  0  0
    1.6119   -3.1745    0.0000 C   0  0  0  0  0  0  0  0  0  0  0  0
    2.4324   -3.0882    0.0000 C   0  0  0  0  0  0  0  0  0  0  0  0
    2.9173   -3.7557    0.0000 C   0  0  0  0  0  0  0  0  0  0  0  0
    2.5817   -4.5094    0.0000 C   0  0  0  0  0  0  0  0  0  0  0  0
    1.7613   -4.5956    0.0000 C   0  0  0  0  0  0  0  0  0  0  0  0
    1.2763   -3.9282    0.0000 C   0  0  0  0  0  0  0  0  0  0  0  0
    1.4289    2.4750    0.0000 C   0  0  0  0  0  0  0  0  0  0  0  0
    1.4289    3.3000    0.0000 C   0  0  0  0  0  0  0  0  0  0  0  0
  1  2  1  0
  2  3  2  0
  3  4  1  0
  4  5  2  0
  5  6  1  0
  6  7  1  0
  7  8  2  0
  7  9  1  0
  9 10  1  0
 10 11  2  0
 10 12  1  0
 12 13  2  0
 13 14  1  0
 14 15  1  0
 15 16  2  0
 12 16  1  0
 16 17  1  0
 17 18  2  0
 18 19  1  0
 19 20  2  0
 20 21  1  0
 20 22  1  0
 22 23  2  0
 17 23  1  0
 14 24  1  0
 24 25  2  0
 25 26  1  0
 26 27  2  0
 27 28  1  0
 28 29  2  0
 24 29  1  0
  5 30  1  0
 30 31  2  0
  2 31  1  0
M  END
>  <pIC50>  (96) 
7.23

>  <chembl_id>  (96) 
CHEMBL2426388

>  <canonical_smiles>  (96) 
Fc1ccc(NC(=S)NC(=O)c2cn(nc2c3ccc(Cl)cc3)c4ccccc4)cc1

$$$$
CHEMBL2426389
     RDKit          2D

 31 34  0  0  0  0  0  0  0  0999 V2000
    2.1434    4.5375    0.0000 Cl  0  0  0  0  0  0  0  0  0  0  0  0
    2.1434    3.7125    0.0000 C   0  0  0  0  0  0  0  0  0  0  0  0
    2.8579    3.3000    0.0000 C   0  0  0  0  0  0  0  0  0  0  0  0
    2.8579    2.4750    0.0000 C   0  0  0  0  0  0  0  0  0  0  0  0
    2.1434    2.0625    0.0000 C   0  0  0  0  0  0  0  0  0  0  0  0
    2.1434    1.2375    0.0000 N   0  0  0  0  0  0  0  0  0  0  0  0
    1.4289    0.8250    0.0000 C   0  0  0  0  0  0  0  0  0  0  0  0
    0.7145    1.2375    0.0000 S   0  0  0  0  0  0  0  0  0  0  0  0
    1.4289    0.0000    0.0000 N   0  0  0  0  0  0  0  0  0  0  0  0
    0.7145   -0.4125    0.0000 C   0  0  0  0  0  0  0  0  0  0  0  0
    0.0000    0.0000    0.0000 O   0  0  0  0  0  0  0  0  0  0  0  0
    0.7145   -1.2375    0.0000 C   0  0  0  0  0  0  0  0  0  0  0  0
    1.3819   -1.7224    0.0000 C   0  0  0  0  0  0  0  0  0  0  0  0
    1.1270   -2.5070    0.0000 N   0  0  0  0  0  0  0  0  0  0  0  0
    0.3020   -2.5070    0.0000 N   0  0  0  0  0  0  0  0  0  0  0  0
    0.0470   -1.7224    0.0000 C   0  0  0  0  0  0  0  0  0  0  0  0
   -0.7376   -1.4675    0.0000 C   0  0  0  0  0  0  0  0  0  0  0  0
   -1.3507   -2.0195    0.0000 C   0  0  0  0  0  0  0  0  0  0  0  0
   -2.1353   -1.7646    0.0000 C   0  0  0  0  0  0  0  0  0  0  0  0
   -2.3068   -0.9576    0.0000 C   0  0  0  0  0  0  0  0  0  0  0  0
   -3.0915   -0.7027    0.0000 Cl  0  0  0  0  0  0  0  0  0  0  0  0
   -1.6937   -0.4056    0.0000 C   0  0  0  0  0  0  0  0  0  0  0  0
   -0.9091   -0.6605    0.0000 C   0  0  0  0  0  0  0  0  0  0  0  0
    1.6119   -3.1745    0.0000 C   0  0  0  0  0  0  0  0  0  0  0  0
    2.4324   -3.0882    0.0000 C   0  0  0  0  0  0  0  0  0  0  0  0
    2.9173   -3.7557    0.0000 C   0  0  0  0  0  0  0  0  0  0  0  0
    2.5817   -4.5094    0.0000 C   0  0  0  0  0  0  0  0  0  0  0  0
    1.7613   -4.5956    0.0000 C   0  0  0  0  0  0  0  0  0  0  0  0
    1.2763   -3.9282    0.0000 C   0  0  0  0  0  0  0  0  0  0  0  0
    1.4289    2.4750    0.0000 C   0  0  0  0  0  0  0  0  0  0  0  0
    1.4289    3.3000    0.0000 C   0  0  0  0  0  0  0  0  0  0  0  0
  1  2  1  0
  2  3  2  0
  3  4  1  0
  4  5  2  0
  5  6  1  0
  6  7  1  0
  7  8  2  0
  7  9  1  0
  9 10  1  0
 10 11  2  0
 10 12  1  0
 12 13  2  0
 13 14  1  0
 14 15  1  0
 15 16  2  0
 12 16  1  0
 16 17  1  0
 17 18  2  0
 18 19  1  0
 19 20  2  0
 20 21  1  0
 20 22  1  0
 22 23  2  0
 17 23  1  0
 14 24  1  0
 24 25  2  0
 25 26  1  0
 26 27  2  0
 27 28  1  0
 28 29  2  0
 24 29  1  0
  5 30  1  0
 30 31  2  0
  2 31  1  0
M  END
>  <pIC50>  (97) 
7.24

>  <chembl_id>  (97) 
CHEMBL2426389

>  <canonical_smiles>  (97) 
Clc1ccc(NC(=S)NC(=O)c2cn(nc2c3ccc(Cl)cc3)c4ccccc4)cc1

$$$$
CHEMBL2426390
     RDKit          2D

 31 34  0  0  0  0  0  0  0  0999 V2000
    2.1434    4.5375    0.0000 C   0  0  0  0  0  0  0  0  0  0  0  0
    2.1434    3.7125    0.0000 C   0  0  0  0  0  0  0  0  0  0  0  0
    2.8579    3.3000    0.0000 C   0  0  0  0  0  0  0  0  0  0  0  0
    2.8579    2.4750    0.0000 C   0  0  0  0  0  0  0  0  0  0  0  0
    2.1434    2.0625    0.0000 C   0  0  0  0  0  0  0  0  0  0  0  0
    2.1434    1.2375    0.0000 N   0  0  0  0  0  0  0  0  0  0  0  0
    1.4289    0.8250    0.0000 C   0  0  0  0  0  0  0  0  0  0  0  0
    0.7145    1.2375    0.0000 S   0  0  0  0  0  0  0  0  0  0  0  0
    1.4289    0.0000    0.0000 N   0  0  0  0  0  0  0  0  0  0  0  0
    0.7145   -0.4125    0.0000 C   0  0  0  0  0  0  0  0  0  0  0  0
    0.0000    0.0000    0.0000 O   0  0  0  0  0  0  0  0  0  0  0  0
    0.7145   -1.2375    0.0000 C   0  0  0  0  0  0  0  0  0  0  0  0
    1.3819   -1.7224    0.0000 C   0  0  0  0  0  0  0  0  0  0  0  0
    1.1270   -2.5070    0.0000 N   0  0  0  0  0  0  0  0  0  0  0  0
    0.3020   -2.5070    0.0000 N   0  0  0  0  0  0  0  0  0  0  0  0
    0.0470   -1.7224    0.0000 C   0  0  0  0  0  0  0  0  0  0  0  0
   -0.7376   -1.4675    0.0000 C   0  0  0  0  0  0  0  0  0  0  0  0
   -1.3507   -2.0195    0.0000 C   0  0  0  0  0  0  0  0  0  0  0  0
   -2.1353   -1.7646    0.0000 C   0  0  0  0  0  0  0  0  0  0  0  0
   -2.3068   -0.9576    0.0000 C   0  0  0  0  0  0  0  0  0  0  0  0
   -3.0915   -0.7027    0.0000 F   0  0  0  0  0  0  0  0  0  0  0  0
   -1.6937   -0.4056    0.0000 C   0  0  0  0  0  0  0  0  0  0  0  0
   -0.9091   -0.6605    0.0000 C   0  0  0  0  0  0  0  0  0  0  0  0
    1.6119   -3.1745    0.0000 C   0  0  0  0  0  0  0  0  0  0  0  0
    2.4324   -3.0882    0.0000 C   0  0  0  0  0  0  0  0  0  0  0  0
    2.9173   -3.7557    0.0000 C   0  0  0  0  0  0  0  0  0  0  0  0
    2.5817   -4.5094    0.0000 C   0  0  0  0  0  0  0  0  0  0  0  0
    1.7613   -4.5956    0.0000 C   0  0  0  0  0  0  0  0  0  0  0  0
    1.2763   -3.9282    0.0000 C   0  0  0  0  0  0  0  0  0  0  0  0
    1.4289    2.4750    0.0000 C   0  0  0  0  0  0  0  0  0  0  0  0
    1.4289    3.3000    0.0000 C   0  0  0  0  0  0  0  0  0  0  0  0
  1  2  1  0
  2  3  2  0
  3  4  1  0
  4  5  2  0
  5  6  1  0
  6  7  1  0
  7  8  2  0
  7  9  1  0
  9 10  1  0
 10 11  2  0
 10 12  1  0
 12 13  2  0
 13 14  1  0
 14 15  1  0
 15 16  2  0
 12 16  1  0
 16 17  1  0
 17 18  2  0
 18 19  1  0
 19 20  2  0
 20 21  1  0
 20 22  1  0
 22 23  2  0
 17 23  1  0
 14 24  1  0
 24 25  2  0
 25 26  1  0
 26 27  2  0
 27 28  1  0
 28 29  2  0
 24 29  1  0
  5 30  1  0
 30 31  2  0
  2 31  1  0
M  END
>  <pIC50>  (98) 
7.37

>  <chembl_id>  (98) 
CHEMBL2426390

>  <canonical_smiles>  (98) 
Cc1ccc(NC(=S)NC(=O)c2cn(nc2c3ccc(F)cc3)c4ccccc4)cc1

$$$$
CHEMBL2426391
     RDKit          2D

 32 35  0  0  0  0  0  0  0  0999 V2000
    5.7158   -2.4750    0.0000 C   0  0  0  0  0  0  0  0  0  0  0  0
    5.0013   -2.8875    0.0000 O   0  0  0  0  0  0  0  0  0  0  0  0
    4.2868   -2.4750    0.0000 C   0  0  0  0  0  0  0  0  0  0  0  0
    3.5724   -2.8875    0.0000 C   0  0  0  0  0  0  0  0  0  0  0  0
    2.8579   -2.4750    0.0000 C   0  0  0  0  0  0  0  0  0  0  0  0
    2.8579   -1.6500    0.0000 C   0  0  0  0  0  0  0  0  0  0  0  0
    2.1434   -1.2375    0.0000 N   0  0  0  0  0  0  0  0  0  0  0  0
    2.1434   -0.4125    0.0000 C   0  0  0  0  0  0  0  0  0  0  0  0
    2.8579    0.0000    0.0000 S   0  0  0  0  0  0  0  0  0  0  0  0
    1.4289    0.0000    0.0000 N   0  0  0  0  0  0  0  0  0  0  0  0
    0.7145   -0.4125    0.0000 C   0  0  0  0  0  0  0  0  0  0  0  0
    0.0000    0.0000    0.0000 O   0  0  0  0  0  0  0  0  0  0  0  0
    0.7145   -1.2375    0.0000 C   0  0  0  0  0  0  0  0  0  0  0  0
    1.3819   -1.7224    0.0000 C   0  0  0  0  0  0  0  0  0  0  0  0
    1.1270   -2.5070    0.0000 N   0  0  0  0  0  0  0  0  0  0  0  0
    0.3020   -2.5070    0.0000 N   0  0  0  0  0  0  0  0  0  0  0  0
    0.0470   -1.7224    0.0000 C   0  0  0  0  0  0  0  0  0  0  0  0
   -0.7376   -1.4675    0.0000 C   0  0  0  0  0  0  0  0  0  0  0  0
   -1.3507   -2.0195    0.0000 C   0  0  0  0  0  0  0  0  0  0  0  0
   -2.1353   -1.7646    0.0000 C   0  0  0  0  0  0  0  0  0  0  0  0
   -2.3068   -0.9576    0.0000 C   0  0  0  0  0  0  0  0  0  0  0  0
   -3.0915   -0.7027    0.0000 F   0  0  0  0  0  0  0  0  0  0  0  0
   -1.6937   -0.4056    0.0000 C   0  0  0  0  0  0  0  0  0  0  0  0
   -0.9091   -0.6605    0.0000 C   0  0  0  0  0  0  0  0  0  0  0  0
    1.6119   -3.1745    0.0000 C   0  0  0  0  0  0  0  0  0  0  0  0
    2.4324   -3.0882    0.0000 C   0  0  0  0  0  0  0  0  0  0  0  0
    2.9173   -3.7557    0.0000 C   0  0  0  0  0  0  0  0  0  0  0  0
    2.5817   -4.5094    0.0000 C   0  0  0  0  0  0  0  0  0  0  0  0
    1.7613   -4.5956    0.0000 C   0  0  0  0  0  0  0  0  0  0  0  0
    1.2763   -3.9282    0.0000 C   0  0  0  0  0  0  0  0  0  0  0  0
    3.5724   -1.2375    0.0000 C   0  0  0  0  0  0  0  0  0  0  0  0
    4.2868   -1.6500    0.0000 C   0  0  0  0  0  0  0  0  0  0  0  0
  1  2  1  0
  2  3  1  0
  3  4  2  0
  4  5  1  0
  5  6  2  0
  6  7  1  0
  7  8  1  0
  8  9  2  0
  8 10  1  0
 10 11  1  0
 11 12  2  0
 11 13  1  0
 13 14  2  0
 14 15  1  0
 15 16  1  0
 16 17  2  0
 13 17  1  0
 17 18  1  0
 18 19  2  0
 19 20  1  0
 20 21  2  0
 21 22  1  0
 21 23  1  0
 23 24  2  0
 18 24  1  0
 15 25  1  0
 25 26  2  0
 26 27  1  0
 27 28  2  0
 28 29  1  0
 29 30  2  0
 25 30  1  0
  6 31  1  0
 31 32  2  0
  3 32  1  0
M  END
>  <pIC50>  (99) 
7.44

>  <chembl_id>  (99) 
CHEMBL2426391

>  <canonical_smiles>  (99) 
COc1ccc(NC(=S)NC(=O)c2cn(nc2c3ccc(F)cc3)c4ccccc4)cc1

$$$$
CHEMBL2426392
     RDKit          2D

 31 34  0  0  0  0  0  0  0  0999 V2000
    2.1434    4.5375    0.0000 F   0  0  0  0  0  0  0  0  0  0  0  0
    2.1434    3.7125    0.0000 C   0  0  0  0  0  0  0  0  0  0  0  0
    2.8579    3.3000    0.0000 C   0  0  0  0  0  0  0  0  0  0  0  0
    2.8579    2.4750    0.0000 C   0  0  0  0  0  0  0  0  0  0  0  0
    2.1434    2.0625    0.0000 C   0  0  0  0  0  0  0  0  0  0  0  0
    2.1434    1.2375    0.0000 N   0  0  0  0  0  0  0  0  0  0  0  0
    1.4289    0.8250    0.0000 C   0  0  0  0  0  0  0  0  0  0  0  0
    0.7145    1.2375    0.0000 S   0  0  0  0  0  0  0  0  0  0  0  0
    1.4289    0.0000    0.0000 N   0  0  0  0  0  0  0  0  0  0  0  0
    0.7145   -0.4125    0.0000 C   0  0  0  0  0  0  0  0  0  0  0  0
    0.0000    0.0000    0.0000 O   0  0  0  0  0  0  0  0  0  0  0  0
    0.7145   -1.2375    0.0000 C   0  0  0  0  0  0  0  0  0  0  0  0
    1.3819   -1.7224    0.0000 C   0  0  0  0  0  0  0  0  0  0  0  0
    1.1270   -2.5070    0.0000 N   0  0  0  0  0  0  0  0  0  0  0  0
    0.3020   -2.5070    0.0000 N   0  0  0  0  0  0  0  0  0  0  0  0
    0.0470   -1.7224    0.0000 C   0  0  0  0  0  0  0  0  0  0  0  0
   -0.7376   -1.4675    0.0000 C   0  0  0  0  0  0  0  0  0  0  0  0
   -1.3507   -2.0195    0.0000 C   0  0  0  0  0  0  0  0  0  0  0  0
   -2.1353   -1.7646    0.0000 C   0  0  0  0  0  0  0  0  0  0  0  0
   -2.3068   -0.9576    0.0000 C   0  0  0  0  0  0  0  0  0  0  0  0
   -3.0915   -0.7027    0.0000 F   0  0  0  0  0  0  0  0  0  0  0  0
   -1.6937   -0.4056    0.0000 C   0  0  0  0  0  0  0  0  0  0  0  0
   -0.9091   -0.6605    0.0000 C   0  0  0  0  0  0  0  0  0  0  0  0
    1.6119   -3.1745    0.0000 C   0  0  0  0  0  0  0  0  0  0  0  0
    2.4324   -3.0882    0.0000 C   0  0  0  0  0  0  0  0  0  0  0  0
    2.9173   -3.7557    0.0000 C   0  0  0  0  0  0  0  0  0  0  0  0
    2.5817   -4.5094    0.0000 C   0  0  0  0  0  0  0  0  0  0  0  0
    1.7613   -4.5956    0.0000 C   0  0  0  0  0  0  0  0  0  0  0  0
    1.2763   -3.9282    0.0000 C   0  0  0  0  0  0  0  0  0  0  0  0
    1.4289    2.4750    0.0000 C   0  0  0  0  0  0  0  0  0  0  0  0
    1.4289    3.3000    0.0000 C   0  0  0  0  0  0  0  0  0  0  0  0
  1  2  1  0
  2  3  2  0
  3  4  1  0
  4  5  2  0
  5  6  1  0
  6  7  1  0
  7  8  2  0
  7  9  1  0
  9 10  1  0
 10 11  2  0
 10 12  1  0
 12 13  2  0
 13 14  1  0
 14 15  1  0
 15 16  2  0
 12 16  1  0
 16 17  1  0
 17 18  2  0
 18 19  1  0
 19 20  2  0
 20 21  1  0
 20 22  1  0
 22 23  2  0
 17 23  1  0
 14 24  1  0
 24 25  2  0
 25 26  1  0
 26 27  2  0
 27 28  1  0
 28 29  2  0
 24 29  1  0
  5 30  1  0
 30 31  2  0
  2 31  1  0
M  END
>  <pIC50>  (100) 
7.31

>  <chembl_id>  (100) 
CHEMBL2426392

>  <canonical_smiles>  (100) 
Fc1ccc(NC(=S)NC(=O)c2cn(nc2c3ccc(F)cc3)c4ccccc4)cc1

$$$$
CHEMBL2426393
     RDKit          2D

 31 34  0  0  0  0  0  0  0  0999 V2000
    0.7145    2.0625    0.0000 F   0  0  0  0  0  0  0  0  0  0  0  0
    0.7145    1.2375    0.0000 C   0  0  0  0  0  0  0  0  0  0  0  0
    1.4289    0.8250    0.0000 C   0  0  0  0  0  0  0  0  0  0  0  0
    1.4289    0.0000    0.0000 C   0  0  0  0  0  0  0  0  0  0  0  0
    0.7145   -0.4125    0.0000 C   0  0  0  0  0  0  0  0  0  0  0  0
    0.0000    0.0000    0.0000 C   0  0  0  0  0  0  0  0  0  0  0  0
    0.0000    0.8250    0.0000 C   0  0  0  0  0  0  0  0  0  0  0  0
    0.7145   -1.2375    0.0000 C   0  0  0  0  0  0  0  0  0  0  0  0
    1.3819   -1.7224    0.0000 N   0  0  0  0  0  0  0  0  0  0  0  0
    1.1270   -2.5070    0.0000 N   0  0  0  0  0  0  0  0  0  0  0  0
    0.3020   -2.5070    0.0000 C   0  0  0  0  0  0  0  0  0  0  0  0
    0.0470   -1.7224    0.0000 C   0  0  0  0  0  0  0  0  0  0  0  0
   -0.7376   -1.4675    0.0000 C   0  0  0  0  0  0  0  0  0  0  0  0
   -0.9091   -0.6605    0.0000 O   0  0  0  0  0  0  0  0  0  0  0  0
   -1.3507   -2.0195    0.0000 N   0  0  0  0  0  0  0  0  0  0  0  0
   -2.1353   -1.7646    0.0000 C   0  0  0  0  0  0  0  0  0  0  0  0
   -2.3068   -0.9576    0.0000 S   0  0  0  0  0  0  0  0  0  0  0  0
   -2.7484   -2.3166    0.0000 N   0  0  0  0  0  0  0  0  0  0  0  0
   -3.5330   -2.0617    0.0000 C   0  0  0  0  0  0  0  0  0  0  0  0
   -4.1461   -2.6137    0.0000 C   0  0  0  0  0  0  0  0  0  0  0  0
   -4.9307   -2.3588    0.0000 C   0  0  0  0  0  0  0  0  0  0  0  0
   -5.1023   -1.5518    0.0000 C   0  0  0  0  0  0  0  0  0  0  0  0
   -5.8869   -1.2969    0.0000 Cl  0  0  0  0  0  0  0  0  0  0  0  0
   -4.4892   -0.9998    0.0000 C   0  0  0  0  0  0  0  0  0  0  0  0
   -3.7045   -1.2547    0.0000 C   0  0  0  0  0  0  0  0  0  0  0  0
    1.6119   -3.1745    0.0000 C   0  0  0  0  0  0  0  0  0  0  0  0
    2.4324   -3.0882    0.0000 C   0  0  0  0  0  0  0  0  0  0  0  0
    2.9173   -3.7557    0.0000 C   0  0  0  0  0  0  0  0  0  0  0  0
    2.5817   -4.5094    0.0000 C   0  0  0  0  0  0  0  0  0  0  0  0
    1.7613   -4.5956    0.0000 C   0  0  0  0  0  0  0  0  0  0  0  0
    1.2763   -3.9282    0.0000 C   0  0  0  0  0  0  0  0  0  0  0  0
  1  2  1  0
  2  3  2  0
  3  4  1  0
  4  5  2  0
  5  6  1  0
  6  7  2  0
  2  7  1  0
  5  8  1  0
  8  9  2  0
  9 10  1  0
 10 11  1  0
 11 12  2  0
  8 12  1  0
 12 13  1  0
 13 14  2  0
 13 15  1  0
 15 16  1  0
 16 17  2  0
 16 18  1  0
 18 19  1  0
 19 20  2  0
 20 21  1  0
 21 22  2  0
 22 23  1  0
 22 24  1  0
 24 25  2  0
 19 25  1  0
 10 26  1  0
 26 27  2  0
 27 28  1  0
 28 29  2  0
 29 30  1  0
 30 31  2  0
 26 31  1  0
M  END
>  <pIC50>  (101) 
7.36

>  <chembl_id>  (101) 
CHEMBL2426393

>  <canonical_smiles>  (101) 
Fc1ccc(cc1)c2nn(cc2C(=O)NC(=S)Nc3ccc(Cl)cc3)c4ccccc4

$$$$
CHEMBL2426394
     RDKit          2D

 32 35  0  0  0  0  0  0  0  0999 V2000
    0.0000    2.4750    0.0000 C   0  0  0  0  0  0  0  0  0  0  0  0
    0.7145    2.0625    0.0000 O   0  0  0  0  0  0  0  0  0  0  0  0
    0.7145    1.2375    0.0000 C   0  0  0  0  0  0  0  0  0  0  0  0
    1.4289    0.8250    0.0000 C   0  0  0  0  0  0  0  0  0  0  0  0
    1.4289    0.0000    0.0000 C   0  0  0  0  0  0  0  0  0  0  0  0
    0.7145   -0.4125    0.0000 C   0  0  0  0  0  0  0  0  0  0  0  0
    0.0000    0.0000    0.0000 C   0  0  0  0  0  0  0  0  0  0  0  0
    0.0000    0.8250    0.0000 C   0  0  0  0  0  0  0  0  0  0  0  0
    0.7145   -1.2375    0.0000 C   0  0  0  0  0  0  0  0  0  0  0  0
    1.3819   -1.7224    0.0000 N   0  0  0  0  0  0  0  0  0  0  0  0
    1.1270   -2.5070    0.0000 N   0  0  0  0  0  0  0  0  0  0  0  0
    0.3020   -2.5070    0.0000 C   0  0  0  0  0  0  0  0  0  0  0  0
    0.0470   -1.7224    0.0000 C   0  0  0  0  0  0  0  0  0  0  0  0
   -0.7376   -1.4675    0.0000 C   0  0  0  0  0  0  0  0  0  0  0  0
   -0.9091   -0.6605    0.0000 O   0  0  0  0  0  0  0  0  0  0  0  0
   -1.3507   -2.0195    0.0000 N   0  0  0  0  0  0  0  0  0  0  0  0
   -2.1353   -1.7646    0.0000 C   0  0  0  0  0  0  0  0  0  0  0  0
   -2.3068   -0.9576    0.0000 S   0  0  0  0  0  0  0  0  0  0  0  0
   -2.7484   -2.3166    0.0000 N   0  0  0  0  0  0  0  0  0  0  0  0
   -2.5769   -3.1236    0.0000 C   0  0  0  0  0  0  0  0  0  0  0  0
   -1.7923   -3.3785    0.0000 C   0  0  0  0  0  0  0  0  0  0  0  0
   -1.6207   -4.1855    0.0000 C   0  0  0  0  0  0  0  0  0  0  0  0
   -2.2338   -4.7375    0.0000 C   0  0  0  0  0  0  0  0  0  0  0  0
   -2.0623   -5.5445    0.0000 C   0  0  0  0  0  0  0  0  0  0  0  0
   -3.0184   -4.4826    0.0000 C   0  0  0  0  0  0  0  0  0  0  0  0
   -3.1900   -3.6756    0.0000 C   0  0  0  0  0  0  0  0  0  0  0  0
    1.6119   -3.1745    0.0000 C   0  0  0  0  0  0  0  0  0  0  0  0
    2.4324   -3.0882    0.0000 C   0  0  0  0  0  0  0  0  0  0  0  0
    2.9173   -3.7557    0.0000 C   0  0  0  0  0  0  0  0  0  0  0  0
    2.5817   -4.5094    0.0000 C   0  0  0  0  0  0  0  0  0  0  0  0
    1.7613   -4.5956    0.0000 C   0  0  0  0  0  0  0  0  0  0  0  0
    1.2763   -3.9282    0.0000 C   0  0  0  0  0  0  0  0  0  0  0  0
  1  2  1  0
  2  3  1  0
  3  4  2  0
  4  5  1  0
  5  6  2  0
  6  7  1  0
  7  8  2  0
  3  8  1  0
  6  9  1  0
  9 10  2  0
 10 11  1  0
 11 12  1  0
 12 13  2  0
  9 13  1  0
 13 14  1  0
 14 15  2  0
 14 16  1  0
 16 17  1  0
 17 18  2  0
 17 19  1  0
 19 20  1  0
 20 21  2  0
 21 22  1  0
 22 23  2  0
 23 24  1  0
 23 25  1  0
 25 26  2  0
 20 26  1  0
 11 27  1  0
 27 28  2  0
 28 29  1  0
 29 30  2  0
 30 31  1  0
 31 32  2  0
 27 32  1  0
M  END
>  <pIC50>  (102) 
7.54

>  <chembl_id>  (102) 
CHEMBL2426394

>  <canonical_smiles>  (102) 
COc1ccc(cc1)c2nn(cc2C(=O)NC(=S)Nc3ccc(C)cc3)c4ccccc4

$$$$
CHEMBL2426395
     RDKit          2D

 33 36  0  0  0  0  0  0  0  0999 V2000
    5.7158    0.0000    0.0000 C   0  0  0  0  0  0  0  0  0  0  0  0
    5.0013   -0.4125    0.0000 O   0  0  0  0  0  0  0  0  0  0  0  0
    4.2868    0.0000    0.0000 C   0  0  0  0  0  0  0  0  0  0  0  0
    3.5724   -0.4125    0.0000 C   0  0  0  0  0  0  0  0  0  0  0  0
    2.8579    0.0000    0.0000 C   0  0  0  0  0  0  0  0  0  0  0  0
    2.8579    0.8250    0.0000 C   0  0  0  0  0  0  0  0  0  0  0  0
    2.1434    1.2375    0.0000 N   0  0  0  0  0  0  0  0  0  0  0  0
    1.4289    0.8250    0.0000 C   0  0  0  0  0  0  0  0  0  0  0  0
    0.7145    1.2375    0.0000 S   0  0  0  0  0  0  0  0  0  0  0  0
    1.4289    0.0000    0.0000 N   0  0  0  0  0  0  0  0  0  0  0  0
    0.7145   -0.4125    0.0000 C   0  0  0  0  0  0  0  0  0  0  0  0
    0.0000    0.0000    0.0000 O   0  0  0  0  0  0  0  0  0  0  0  0
    0.7145   -1.2375    0.0000 C   0  0  0  0  0  0  0  0  0  0  0  0
    1.3819   -1.7224    0.0000 C   0  0  0  0  0  0  0  0  0  0  0  0
    1.1270   -2.5070    0.0000 N   0  0  0  0  0  0  0  0  0  0  0  0
    0.3020   -2.5070    0.0000 N   0  0  0  0  0  0  0  0  0  0  0  0
    0.0470   -1.7224    0.0000 C   0  0  0  0  0  0  0  0  0  0  0  0
   -0.7376   -1.4675    0.0000 C   0  0  0  0  0  0  0  0  0  0  0  0
   -1.3507   -2.0195    0.0000 C   0  0  0  0  0  0  0  0  0  0  0  0
   -2.1353   -1.7646    0.0000 C   0  0  0  0  0  0  0  0  0  0  0  0
   -2.3068   -0.9576    0.0000 C   0  0  0  0  0  0  0  0  0  0  0  0
   -3.0915   -0.7027    0.0000 O   0  0  0  0  0  0  0  0  0  0  0  0
   -3.7045   -1.2547    0.0000 C   0  0  0  0  0  0  0  0  0  0  0  0
   -1.6937   -0.4056    0.0000 C   0  0  0  0  0  0  0  0  0  0  0  0
   -0.9091   -0.6605    0.0000 C   0  0  0  0  0  0  0  0  0  0  0  0
    1.6119   -3.1745    0.0000 C   0  0  0  0  0  0  0  0  0  0  0  0
    2.4324   -3.0882    0.0000 C   0  0  0  0  0  0  0  0  0  0  0  0
    2.9173   -3.7557    0.0000 C   0  0  0  0  0  0  0  0  0  0  0  0
    2.5817   -4.5094    0.0000 C   0  0  0  0  0  0  0  0  0  0  0  0
    1.7613   -4.5956    0.0000 C   0  0  0  0  0  0  0  0  0  0  0  0
    1.2763   -3.9282    0.0000 C   0  0  0  0  0  0  0  0  0  0  0  0
    3.5724    1.2375    0.0000 C   0  0  0  0  0  0  0  0  0  0  0  0
    4.2868    0.8250    0.0000 C   0  0  0  0  0  0  0  0  0  0  0  0
  1  2  1  0
  2  3  1  0
  3  4  2  0
  4  5  1  0
  5  6  2  0
  6  7  1  0
  7  8  1  0
  8  9  2  0
  8 10  1  0
 10 11  1  0
 11 12  2  0
 11 13  1  0
 13 14  2  0
 14 15  1  0
 15 16  1  0
 16 17  2  0
 13 17  1  0
 17 18  1  0
 18 19  2  0
 19 20  1  0
 20 21  2  0
 21 22  1  0
 22 23  1  0
 21 24  1  0
 24 25  2  0
 18 25  1  0
 15 26  1  0
 26 27  2  0
 27 28  1  0
 28 29  2  0
 29 30  1  0
 30 31  2  0
 26 31  1  0
  6 32  1  0
 32 33  2  0
  3 33  1  0
M  END
>  <pIC50>  (103) 
7.60

>  <chembl_id>  (103) 
CHEMBL2426395

>  <canonical_smiles>  (103) 
COc1ccc(NC(=S)NC(=O)c2cn(nc2c3ccc(OC)cc3)c4ccccc4)cc1

$$$$
CHEMBL2426396
     RDKit          2D

 32 35  0  0  0  0  0  0  0  0999 V2000
    0.0000    2.4750    0.0000 C   0  0  0  0  0  0  0  0  0  0  0  0
    0.7145    2.0625    0.0000 O   0  0  0  0  0  0  0  0  0  0  0  0
    0.7145    1.2375    0.0000 C   0  0  0  0  0  0  0  0  0  0  0  0
    1.4289    0.8250    0.0000 C   0  0  0  0  0  0  0  0  0  0  0  0
    1.4289    0.0000    0.0000 C   0  0  0  0  0  0  0  0  0  0  0  0
    0.7145   -0.4125    0.0000 C   0  0  0  0  0  0  0  0  0  0  0  0
    0.0000    0.0000    0.0000 C   0  0  0  0  0  0  0  0  0  0  0  0
    0.0000    0.8250    0.0000 C   0  0  0  0  0  0  0  0  0  0  0  0
    0.7145   -1.2375    0.0000 C   0  0  0  0  0  0  0  0  0  0  0  0
    1.3819   -1.7224    0.0000 N   0  0  0  0  0  0  0  0  0  0  0  0
    1.1270   -2.5070    0.0000 N   0  0  0  0  0  0  0  0  0  0  0  0
    0.3020   -2.5070    0.0000 C   0  0  0  0  0  0  0  0  0  0  0  0
    0.0470   -1.7224    0.0000 C   0  0  0  0  0  0  0  0  0  0  0  0
   -0.7376   -1.4675    0.0000 C   0  0  0  0  0  0  0  0  0  0  0  0
   -0.9091   -0.6605    0.0000 O   0  0  0  0  0  0  0  0  0  0  0  0
   -1.3507   -2.0195    0.0000 N   0  0  0  0  0  0  0  0  0  0  0  0
   -2.1353   -1.7646    0.0000 C   0  0  0  0  0  0  0  0  0  0  0  0
   -2.3068   -0.9576    0.0000 S   0  0  0  0  0  0  0  0  0  0  0  0
   -2.7484   -2.3166    0.0000 N   0  0  0  0  0  0  0  0  0  0  0  0
   -2.5769   -3.1236    0.0000 C   0  0  0  0  0  0  0  0  0  0  0  0
   -1.7923   -3.3785    0.0000 C   0  0  0  0  0  0  0  0  0  0  0  0
   -1.6207   -4.1855    0.0000 C   0  0  0  0  0  0  0  0  0  0  0  0
   -2.2338   -4.7375    0.0000 C   0  0  0  0  0  0  0  0  0  0  0  0
   -2.0623   -5.5445    0.0000 F   0  0  0  0  0  0  0  0  0  0  0  0
   -3.0184   -4.4826    0.0000 C   0  0  0  0  0  0  0  0  0  0  0  0
   -3.1900   -3.6756    0.0000 C   0  0  0  0  0  0  0  0  0  0  0  0
    1.6119   -3.1745    0.0000 C   0  0  0  0  0  0  0  0  0  0  0  0
    2.4324   -3.0882    0.0000 C   0  0  0  0  0  0  0  0  0  0  0  0
    2.9173   -3.7557    0.0000 C   0  0  0  0  0  0  0  0  0  0  0  0
    2.5817   -4.5094    0.0000 C   0  0  0  0  0  0  0  0  0  0  0  0
    1.7613   -4.5956    0.0000 C   0  0  0  0  0  0  0  0  0  0  0  0
    1.2763   -3.9282    0.0000 C   0  0  0  0  0  0  0  0  0  0  0  0
  1  2  1  0
  2  3  1  0
  3  4  2  0
  4  5  1  0
  5  6  2  0
  6  7  1  0
  7  8  2  0
  3  8  1  0
  6  9  1  0
  9 10  2  0
 10 11  1  0
 11 12  1  0
 12 13  2  0
  9 13  1  0
 13 14  1  0
 14 15  2  0
 14 16  1  0
 16 17  1  0
 17 18  2  0
 17 19  1  0
 19 20  1  0
 20 21  2  0
 21 22  1  0
 22 23  2  0
 23 24  1  0
 23 25  1  0
 25 26  2  0
 20 26  1  0
 11 27  1  0
 27 28  2  0
 28 29  1  0
 29 30  2  0
 30 31  1  0
 31 32  2  0
 27 32  1  0
M  END
>  <pIC50>  (104) 
7.49

>  <chembl_id>  (104) 
CHEMBL2426396

>  <canonical_smiles>  (104) 
COc1ccc(cc1)c2nn(cc2C(=O)NC(=S)Nc3ccc(F)cc3)c4ccccc4

$$$$
CHEMBL2426397
     RDKit          2D

 32 35  0  0  0  0  0  0  0  0999 V2000
    0.0000    2.4750    0.0000 C   0  0  0  0  0  0  0  0  0  0  0  0
    0.7145    2.0625    0.0000 O   0  0  0  0  0  0  0  0  0  0  0  0
    0.7145    1.2375    0.0000 C   0  0  0  0  0  0  0  0  0  0  0  0
    1.4289    0.8250    0.0000 C   0  0  0  0  0  0  0  0  0  0  0  0
    1.4289    0.0000    0.0000 C   0  0  0  0  0  0  0  0  0  0  0  0
    0.7145   -0.4125    0.0000 C   0  0  0  0  0  0  0  0  0  0  0  0
    0.0000    0.0000    0.0000 C   0  0  0  0  0  0  0  0  0  0  0  0
    0.0000    0.8250    0.0000 C   0  0  0  0  0  0  0  0  0  0  0  0
    0.7145   -1.2375    0.0000 C   0  0  0  0  0  0  0  0  0  0  0  0
    1.3819   -1.7224    0.0000 N   0  0  0  0  0  0  0  0  0  0  0  0
    1.1270   -2.5070    0.0000 N   0  0  0  0  0  0  0  0  0  0  0  0
    0.3020   -2.5070    0.0000 C   0  0  0  0  0  0  0  0  0  0  0  0
    0.0470   -1.7224    0.0000 C   0  0  0  0  0  0  0  0  0  0  0  0
   -0.7376   -1.4675    0.0000 C   0  0  0  0  0  0  0  0  0  0  0  0
   -0.9091   -0.6605    0.0000 O   0  0  0  0  0  0  0  0  0  0  0  0
   -1.3507   -2.0195    0.0000 N   0  0  0  0  0  0  0  0  0  0  0  0
   -2.1353   -1.7646    0.0000 C   0  0  0  0  0  0  0  0  0  0  0  0
   -2.3068   -0.9576    0.0000 S   0  0  0  0  0  0  0  0  0  0  0  0
   -2.7484   -2.3166    0.0000 N   0  0  0  0  0  0  0  0  0  0  0  0
   -2.5769   -3.1236    0.0000 C   0  0  0  0  0  0  0  0  0  0  0  0
   -1.7923   -3.3785    0.0000 C   0  0  0  0  0  0  0  0  0  0  0  0
   -1.6207   -4.1855    0.0000 C   0  0  0  0  0  0  0  0  0  0  0  0
   -2.2338   -4.7375    0.0000 C   0  0  0  0  0  0  0  0  0  0  0  0
   -2.0623   -5.5445    0.0000 Cl  0  0  0  0  0  0  0  0  0  0  0  0
   -3.0184   -4.4826    0.0000 C   0  0  0  0  0  0  0  0  0  0  0  0
   -3.1900   -3.6756    0.0000 C   0  0  0  0  0  0  0  0  0  0  0  0
    1.6119   -3.1745    0.0000 C   0  0  0  0  0  0  0  0  0  0  0  0
    2.4324   -3.0882    0.0000 C   0  0  0  0  0  0  0  0  0  0  0  0
    2.9173   -3.7557    0.0000 C   0  0  0  0  0  0  0  0  0  0  0  0
    2.5817   -4.5094    0.0000 C   0  0  0  0  0  0  0  0  0  0  0  0
    1.7613   -4.5956    0.0000 C   0  0  0  0  0  0  0  0  0  0  0  0
    1.2763   -3.9282    0.0000 C   0  0  0  0  0  0  0  0  0  0  0  0
  1  2  1  0
  2  3  1  0
  3  4  2  0
  4  5  1  0
  5  6  2  0
  6  7  1  0
  7  8  2  0
  3  8  1  0
  6  9  1  0
  9 10  2  0
 10 11  1  0
 11 12  1  0
 12 13  2  0
  9 13  1  0
 13 14  1  0
 14 15  2  0
 14 16  1  0
 16 17  1  0
 17 18  2  0
 17 19  1  0
 19 20  1  0
 20 21  2  0
 21 22  1  0
 22 23  2  0
 23 24  1  0
 23 25  1  0
 25 26  2  0
 20 26  1  0
 11 27  1  0
 27 28  2  0
 28 29  1  0
 29 30  2  0
 30 31  1  0
 31 32  2  0
 27 32  1  0
M  END
>  <pIC50>  (105) 
7.52

>  <chembl_id>  (105) 
CHEMBL2426397

>  <canonical_smiles>  (105) 
COc1ccc(cc1)c2nn(cc2C(=O)NC(=S)Nc3ccc(Cl)cc3)c4ccccc4

$$$$
CHEMBL2426398
     RDKit          2D

 30 33  0  0  0  0  0  0  0  0999 V2000
   -0.7145    4.5375    0.0000 C   0  0  0  0  0  0  0  0  0  0  0  0
   -0.7145    3.7125    0.0000 C   0  0  0  0  0  0  0  0  0  0  0  0
    0.0000    3.3000    0.0000 C   0  0  0  0  0  0  0  0  0  0  0  0
    0.0000    2.4750    0.0000 C   0  0  0  0  0  0  0  0  0  0  0  0
   -0.7145    2.0625    0.0000 C   0  0  0  0  0  0  0  0  0  0  0  0
   -0.7145    1.2375    0.0000 N   0  0  0  0  0  0  0  0  0  0  0  0
    0.0000    0.8250    0.0000 C   0  0  0  0  0  0  0  0  0  0  0  0
    0.7145    1.2375    0.0000 S   0  0  0  0  0  0  0  0  0  0  0  0
    0.0000    0.0000    0.0000 N   0  0  0  0  0  0  0  0  0  0  0  0
    0.7145   -0.4125    0.0000 C   0  0  0  0  0  0  0  0  0  0  0  0
    1.4289    0.0000    0.0000 O   0  0  0  0  0  0  0  0  0  0  0  0
    0.7145   -1.2375    0.0000 C   0  0  0  0  0  0  0  0  0  0  0  0
    1.3819   -1.7224    0.0000 C   0  0  0  0  0  0  0  0  0  0  0  0
    1.1270   -2.5070    0.0000 N   0  0  0  0  0  0  0  0  0  0  0  0
    0.3020   -2.5070    0.0000 N   0  0  0  0  0  0  0  0  0  0  0  0
    0.0470   -1.7224    0.0000 C   0  0  0  0  0  0  0  0  0  0  0  0
   -0.7376   -1.4675    0.0000 C   0  0  0  0  0  0  0  0  0  0  0  0
   -1.3507   -2.0195    0.0000 C   0  0  0  0  0  0  0  0  0  0  0  0
   -2.1353   -1.7646    0.0000 C   0  0  0  0  0  0  0  0  0  0  0  0
   -2.3068   -0.9576    0.0000 C   0  0  0  0  0  0  0  0  0  0  0  0
   -1.6937   -0.4056    0.0000 C   0  0  0  0  0  0  0  0  0  0  0  0
   -0.9091   -0.6605    0.0000 C   0  0  0  0  0  0  0  0  0  0  0  0
    1.6119   -3.1745    0.0000 C   0  0  0  0  0  0  0  0  0  0  0  0
    2.4324   -3.0882    0.0000 C   0  0  0  0  0  0  0  0  0  0  0  0
    2.9173   -3.7557    0.0000 C   0  0  0  0  0  0  0  0  0  0  0  0
    2.5817   -4.5094    0.0000 C   0  0  0  0  0  0  0  0  0  0  0  0
    1.7613   -4.5956    0.0000 C   0  0  0  0  0  0  0  0  0  0  0  0
    1.2763   -3.9282    0.0000 C   0  0  0  0  0  0  0  0  0  0  0  0
   -1.4289    2.4750    0.0000 C   0  0  0  0  0  0  0  0  0  0  0  0
   -1.4289    3.3000    0.0000 C   0  0  0  0  0  0  0  0  0  0  0  0
  1  2  1  0
  2  3  2  0
  3  4  1  0
  4  5  2  0
  5  6  1  0
  6  7  1  0
  7  8  2  0
  7  9  1  0
  9 10  1  0
 10 11  2  0
 10 12  1  0
 12 13  2  0
 13 14  1  0
 14 15  1  0
 15 16  2  0
 12 16  1  0
 16 17  1  0
 17 18  2  0
 18 19  1  0
 19 20  2  0
 20 21  1  0
 21 22  2  0
 17 22  1  0
 14 23  1  0
 23 24  2  0
 24 25  1  0
 25 26  2  0
 26 27  1  0
 27 28  2  0
 23 28  1  0
  5 29  1  0
 29 30  2  0
  2 30  1  0
M  END
>  <pIC50>  (106) 
7.16

>  <chembl_id>  (106) 
CHEMBL2426398

>  <canonical_smiles>  (106) 
Cc1ccc(NC(=S)NC(=O)c2cn(nc2c3ccccc3)c4ccccc4)cc1

$$$$
CHEMBL2426399
     RDKit          2D

 31 34  0  0  0  0  0  0  0  0999 V2000
   -1.4289    4.9500    0.0000 C   0  0  0  0  0  0  0  0  0  0  0  0
   -0.7145    4.5375    0.0000 O   0  0  0  0  0  0  0  0  0  0  0  0
   -0.7145    3.7125    0.0000 C   0  0  0  0  0  0  0  0  0  0  0  0
    0.0000    3.3000    0.0000 C   0  0  0  0  0  0  0  0  0  0  0  0
    0.0000    2.4750    0.0000 C   0  0  0  0  0  0  0  0  0  0  0  0
   -0.7145    2.0625    0.0000 C   0  0  0  0  0  0  0  0  0  0  0  0
   -0.7145    1.2375    0.0000 N   0  0  0  0  0  0  0  0  0  0  0  0
    0.0000    0.8250    0.0000 C   0  0  0  0  0  0  0  0  0  0  0  0
    0.7145    1.2375    0.0000 S   0  0  0  0  0  0  0  0  0  0  0  0
    0.0000    0.0000    0.0000 N   0  0  0  0  0  0  0  0  0  0  0  0
    0.7145   -0.4125    0.0000 C   0  0  0  0  0  0  0  0  0  0  0  0
    1.4289    0.0000    0.0000 O   0  0  0  0  0  0  0  0  0  0  0  0
    0.7145   -1.2375    0.0000 C   0  0  0  0  0  0  0  0  0  0  0  0
    1.3819   -1.7224    0.0000 C   0  0  0  0  0  0  0  0  0  0  0  0
    1.1270   -2.5070    0.0000 N   0  0  0  0  0  0  0  0  0  0  0  0
    0.3020   -2.5070    0.0000 N   0  0  0  0  0  0  0  0  0  0  0  0
    0.0470   -1.7224    0.0000 C   0  0  0  0  0  0  0  0  0  0  0  0
   -0.7376   -1.4675    0.0000 C   0  0  0  0  0  0  0  0  0  0  0  0
   -1.3507   -2.0195    0.0000 C   0  0  0  0  0  0  0  0  0  0  0  0
   -2.1353   -1.7646    0.0000 C   0  0  0  0  0  0  0  0  0  0  0  0
   -2.3068   -0.9576    0.0000 C   0  0  0  0  0  0  0  0  0  0  0  0
   -1.6937   -0.4056    0.0000 C   0  0  0  0  0  0  0  0  0  0  0  0
   -0.9091   -0.6605    0.0000 C   0  0  0  0  0  0  0  0  0  0  0  0
    1.6119   -3.1745    0.0000 C   0  0  0  0  0  0  0  0  0  0  0  0
    2.4324   -3.0882    0.0000 C   0  0  0  0  0  0  0  0  0  0  0  0
    2.9173   -3.7557    0.0000 C   0  0  0  0  0  0  0  0  0  0  0  0
    2.5817   -4.5094    0.0000 C   0  0  0  0  0  0  0  0  0  0  0  0
    1.7613   -4.5956    0.0000 C   0  0  0  0  0  0  0  0  0  0  0  0
    1.2763   -3.9282    0.0000 C   0  0  0  0  0  0  0  0  0  0  0  0
   -1.4289    2.4750    0.0000 C   0  0  0  0  0  0  0  0  0  0  0  0
   -1.4289    3.3000    0.0000 C   0  0  0  0  0  0  0  0  0  0  0  0
  1  2  1  0
  2  3  1  0
  3  4  2  0
  4  5  1  0
  5  6  2  0
  6  7  1  0
  7  8  1  0
  8  9  2  0
  8 10  1  0
 10 11  1  0
 11 12  2  0
 11 13  1  0
 13 14  2  0
 14 15  1  0
 15 16  1  0
 16 17  2  0
 13 17  1  0
 17 18  1  0
 18 19  2  0
 19 20  1  0
 20 21  2  0
 21 22  1  0
 22 23  2  0
 18 23  1  0
 15 24  1  0
 24 25  2  0
 25 26  1  0
 26 27  2  0
 27 28  1  0
 28 29  2  0
 24 29  1  0
  6 30  1  0
 30 31  2  0
  3 31  1  0
M  END
>  <pIC50>  (107) 
7.25

>  <chembl_id>  (107) 
CHEMBL2426399

>  <canonical_smiles>  (107) 
COc1ccc(NC(=S)NC(=O)c2cn(nc2c3ccccc3)c4ccccc4)cc1

$$$$
CHEMBL2436977
     RDKit          2D

 32 37  0  0  0  0  0  0  0  0999 V2000
    5.5691    3.4232    0.0000 C   0  0  0  0  0  0  0  0  0  0  0  0
    5.5691    2.5982    0.0000 N   0  0  0  0  0  0  0  0  0  0  0  0
    6.2835    2.1857    0.0000 C   0  0  0  0  0  0  0  0  0  0  0  0
    6.2835    1.3607    0.0000 C   0  0  0  0  0  0  0  0  0  0  0  0
    5.5691    0.9482    0.0000 N   0  0  0  0  0  0  0  0  0  0  0  0
    5.5691    0.1232    0.0000 C   0  0  0  0  0  0  0  0  0  0  0  0
    4.8546   -0.2893    0.0000 C   0  0  0  0  0  0  0  0  0  0  0  0
    4.8546   -1.1143    0.0000 C   0  0  0  0  0  0  0  0  0  0  0  0
    4.1401   -1.5268    0.0000 C   0  0  0  0  0  0  0  0  0  0  0  0
    3.4256   -1.1143    0.0000 C   0  0  0  0  0  0  0  0  0  0  0  0
    3.4256   -0.2893    0.0000 C   0  0  0  0  0  0  0  0  0  0  0  0
    4.1401    0.1232    0.0000 C   0  0  0  0  0  0  0  0  0  0  0  0
    2.7112   -1.5268    0.0000 C   0  0  0  0  0  0  0  0  0  0  0  0
    2.7112   -2.3518    0.0000 C   0  0  0  0  0  0  0  0  0  0  0  0
    1.9967   -2.7643    0.0000 N   0  0  0  0  0  0  0  0  0  0  0  0
    1.2822   -2.3518    0.0000 C   0  0  0  0  0  0  0  0  0  0  0  0
    0.4976   -2.6067    0.0000 N   0  0  0  0  0  0  0  0  0  0  0  0
    0.0127   -1.9393    0.0000 C   0  0  0  0  0  0  0  0  0  0  0  0
    0.4976   -1.2718    0.0000 C   0  0  0  0  0  0  0  0  0  0  0  0
    0.2427   -0.4872    0.0000 C   0  0  0  0  0  0  0  0  0  0  0  0
   -0.5643   -0.3157    0.0000 C   0  0  0  0  0  0  0  0  0  0  0  0
   -0.8192    0.4689    0.0000 N   0  0  0  0  0  0  0  0  0  0  0  0
   -0.2672    1.0820    0.0000 C   0  0  0  0  0  0  0  0  0  0  0  0
   -0.3534    1.9025    0.0000 N   0  0  0  0  0  0  0  0  0  0  0  0
    0.4002    2.2381    0.0000 C   0  0  0  0  0  0  0  0  0  0  0  0
    0.9523    1.6250    0.0000 C   0  0  0  0  0  0  0  0  0  0  0  0
    0.5398    0.9105    0.0000 C   0  0  0  0  0  0  0  0  0  0  0  0
    0.7947    0.1259    0.0000 C   0  0  0  0  0  0  0  0  0  0  0  0
    1.2822   -1.5268    0.0000 C   0  0  0  0  0  0  0  0  0  0  0  0
    1.9967   -1.1143    0.0000 C   0  0  0  0  0  0  0  0  0  0  0  0
    4.8546    1.3607    0.0000 C   0  0  0  0  0  0  0  0  0  0  0  0
    4.8546    2.1857    0.0000 C   0  0  0  0  0  0  0  0  0  0  0  0
  1  2  1  0
  2  3  1  0
  3  4  1  0
  4  5  1  0
  5  6  1  0
  6  7  1  0
  7  8  2  0
  8  9  1  0
  9 10  2  0
 10 11  1  0
 11 12  2  0
  7 12  1  0
 10 13  1  0
 13 14  2  0
 14 15  1  0
 15 16  2  0
 16 17  1  0
 17 18  1  0
 18 19  2  0
 19 20  1  0
 20 21  2  0
 21 22  1  0
 22 23  2  0
 23 24  1  0
 24 25  1  0
 25 26  2  0
 26 27  1  0
 23 27  1  0
 27 28  2  0
 20 28  1  0
 19 29  1  0
 16 29  1  0
 29 30  2  0
 13 30  1  0
  5 31  1  0
 31 32  1  0
  2 32  1  0
M  END
>  <pIC50>  (108) 
6.14

>  <chembl_id>  (108) 
CHEMBL2436977

>  <canonical_smiles>  (108) 
CN1CCN(Cc2ccc(cc2)c3cnc4[nH]cc(c5cnc6[nH]ccc6c5)c4c3)CC1

$$$$
CHEMBL2436978
     RDKit          2D

 32 37  0  0  0  0  0  0  0  0999 V2000
    5.5691    3.4232    0.0000 C   0  0  0  0  0  0  0  0  0  0  0  0
    5.5691    2.5982    0.0000 N   0  0  0  0  0  0  0  0  0  0  0  0
    6.2835    2.1857    0.0000 C   0  0  0  0  0  0  0  0  0  0  0  0
    6.2835    1.3607    0.0000 C   0  0  0  0  0  0  0  0  0  0  0  0
    5.5691    0.9482    0.0000 N   0  0  0  0  0  0  0  0  0  0  0  0
    5.5691    0.1232    0.0000 C   0  0  0  0  0  0  0  0  0  0  0  0
    4.8546   -0.2893    0.0000 C   0  0  0  0  0  0  0  0  0  0  0  0
    4.8546   -1.1143    0.0000 C   0  0  0  0  0  0  0  0  0  0  0  0
    4.1401   -1.5268    0.0000 C   0  0  0  0  0  0  0  0  0  0  0  0
    3.4256   -1.1143    0.0000 C   0  0  0  0  0  0  0  0  0  0  0  0
    3.4256   -0.2893    0.0000 C   0  0  0  0  0  0  0  0  0  0  0  0
    4.1401    0.1232    0.0000 C   0  0  0  0  0  0  0  0  0  0  0  0
    2.7112   -1.5268    0.0000 C   0  0  0  0  0  0  0  0  0  0  0  0
    2.7112   -2.3518    0.0000 C   0  0  0  0  0  0  0  0  0  0  0  0
    1.9967   -2.7643    0.0000 N   0  0  0  0  0  0  0  0  0  0  0  0
    1.2822   -2.3518    0.0000 C   0  0  0  0  0  0  0  0  0  0  0  0
    0.4976   -2.6067    0.0000 N   0  0  0  0  0  0  0  0  0  0  0  0
    0.0127   -1.9393    0.0000 C   0  0  0  0  0  0  0  0  0  0  0  0
    0.4976   -1.2718    0.0000 C   0  0  0  0  0  0  0  0  0  0  0  0
    0.2427   -0.4872    0.0000 C   0  0  0  0  0  0  0  0  0  0  0  0
   -0.5643   -0.3157    0.0000 C   0  0  0  0  0  0  0  0  0  0  0  0
   -0.8192    0.4689    0.0000 C   0  0  0  0  0  0  0  0  0  0  0  0
   -0.2672    1.0820    0.0000 C   0  0  0  0  0  0  0  0  0  0  0  0
   -0.3534    1.9025    0.0000 N   0  0  0  0  0  0  0  0  0  0  0  0
    0.4002    2.2381    0.0000 C   0  0  0  0  0  0  0  0  0  0  0  0
    0.9523    1.6250    0.0000 C   0  0  0  0  0  0  0  0  0  0  0  0
    0.5398    0.9105    0.0000 C   0  0  0  0  0  0  0  0  0  0  0  0
    0.7947    0.1259    0.0000 C   0  0  0  0  0  0  0  0  0  0  0  0
    1.2822   -1.5268    0.0000 C   0  0  0  0  0  0  0  0  0  0  0  0
    1.9967   -1.1143    0.0000 C   0  0  0  0  0  0  0  0  0  0  0  0
    4.8546    1.3607    0.0000 C   0  0  0  0  0  0  0  0  0  0  0  0
    4.8546    2.1857    0.0000 C   0  0  0  0  0  0  0  0  0  0  0  0
  1  2  1  0
  2  3  1  0
  3  4  1  0
  4  5  1  0
  5  6  1  0
  6  7  1  0
  7  8  2  0
  8  9  1  0
  9 10  2  0
 10 11  1  0
 11 12  2  0
  7 12  1  0
 10 13  1  0
 13 14  2  0
 14 15  1  0
 15 16  2  0
 16 17  1  0
 17 18  1  0
 18 19  2  0
 19 20  1  0
 20 21  2  0
 21 22  1  0
 22 23  2  0
 23 24  1  0
 24 25  1  0
 25 26  2  0
 26 27  1  0
 23 27  1  0
 27 28  2  0
 20 28  1  0
 19 29  1  0
 16 29  1  0
 29 30  2  0
 13 30  1  0
  5 31  1  0
 31 32  1  0
  2 32  1  0
M  END
>  <pIC50>  (109) 
5.93

>  <chembl_id>  (109) 
CHEMBL2436978

>  <canonical_smiles>  (109) 
CN1CCN(Cc2ccc(cc2)c3cnc4[nH]cc(c5ccc6[nH]ccc6c5)c4c3)CC1

$$$$
CHEMBL2442291
     RDKit          2D

 25 28  0  0  0  0  0  0  0  0999 V2000
    2.3621   -6.2008    0.0000 C   0  0  0  0  0  0  0  0  0  0  0  0
    2.2759   -5.3803    0.0000 C   0  0  0  0  0  0  0  0  0  0  0  0
    1.5614   -4.9678    0.0000 O   0  0  0  0  0  0  0  0  0  0  0  0
    1.7329   -4.1608    0.0000 C   0  0  0  0  0  0  0  0  0  0  0  0
    2.5534   -4.0746    0.0000 N   0  0  0  0  0  0  0  0  0  0  0  0
    2.8889   -4.8283    0.0000 N   0  0  0  0  0  0  0  0  0  0  0  0
    1.1809   -3.5477    0.0000 C   0  0  0  0  0  0  0  0  0  0  0  0
    0.3739   -3.7192    0.0000 C   0  0  0  0  0  0  0  0  0  0  0  0
   -0.1781   -3.1062    0.0000 C   0  0  0  0  0  0  0  0  0  0  0  0
    0.0768   -2.3215    0.0000 C   0  0  0  0  0  0  0  0  0  0  0  0
    0.8838   -2.1500    0.0000 C   0  0  0  0  0  0  0  0  0  0  0  0
    1.4358   -2.7631    0.0000 C   0  0  0  0  0  0  0  0  0  0  0  0
    1.1387   -1.3654    0.0000 C   0  0  0  0  0  0  0  0  0  0  0  0
    0.6538   -0.6979    0.0000 C   0  0  0  0  0  0  0  0  0  0  0  0
    1.1387   -0.0305    0.0000 N   0  0  0  0  0  0  0  0  0  0  0  0
    1.9233   -0.2854    0.0000 N   0  0  0  0  0  0  0  0  0  0  0  0
    2.6378    0.1271    0.0000 C   0  0  0  0  0  0  0  0  0  0  0  0
    3.3523   -0.2854    0.0000 C   0  0  0  0  0  0  0  0  0  0  0  0
    3.3523   -1.1104    0.0000 C   0  0  0  0  0  0  0  0  0  0  0  0
    4.0668   -1.5229    0.0000 N   0  0  0  0  0  0  0  0  0  0  0  0
    4.7812   -1.1104    0.0000 C   0  0  0  0  0  0  0  0  0  0  0  0
    5.4957   -1.5229    0.0000 C   0  0  0  0  0  0  0  0  0  0  0  0
    6.2102   -1.1104    0.0000 N   0  0  0  0  0  0  0  0  0  0  0  0
    2.6378   -1.5229    0.0000 N   0  0  0  0  0  0  0  0  0  0  0  0
    1.9233   -1.1104    0.0000 C   0  0  0  0  0  0  0  0  0  0  0  0
  1  2  1  0
  2  3  1  0
  3  4  1  0
  4  5  2  0
  5  6  1  0
  2  6  2  0
  4  7  1  0
  7  8  2  0
  8  9  1  0
  9 10  2  0
 10 11  1  0
 11 12  2  0
  7 12  1  0
 11 13  1  0
 13 14  1  0
 14 15  2  0
 15 16  1  0
 16 17  1  0
 17 18  2  0
 18 19  1  0
 19 20  1  0
 20 21  1  0
 21 22  1  0
 22 23  1  0
 19 24  2  0
 24 25  1  0
 13 25  2  0
 16 25  1  0
M  END
>  <pIC50>  (110) 
6.24

>  <chembl_id>  (110) 
CHEMBL2442291

>  <canonical_smiles>  (110) 
Cc1oc(nn1)c2cccc(c2)c3cnn4ccc(NCCN)nc34

$$$$
CHEMBL247228
     RDKit          2D

 31 34  0  0  0  0  0  0  0  0999 V2000
    3.2789    2.0625    0.0000 N   0  0  0  0  0  0  0  0  0  0  0  0
    3.2789    1.2375    0.0000 C   0  0  0  0  0  0  0  0  0  0  0  0
    3.9934    0.8250    0.0000 N   0  0  0  0  0  0  0  0  0  0  0  0
    3.9934    0.0000    0.0000 C   0  0  0  0  0  0  0  0  0  0  0  0
    3.2789   -0.4125    0.0000 N   0  0  0  0  0  0  0  0  0  0  0  0
    2.5645    0.0000    0.0000 C   0  0  0  0  0  0  0  0  0  0  0  0
    1.7798   -0.2549    0.0000 O   0  0  0  0  0  0  0  0  0  0  0  0
    1.2949    0.4125    0.0000 C   0  0  0  0  0  0  0  0  0  0  0  0
    1.7798    1.0799    0.0000 C   0  0  0  0  0  0  0  0  0  0  0  0
    1.5249    1.8646    0.0000 C   0  0  0  0  0  0  0  0  0  0  0  0
    0.7179    2.0361    0.0000 C   0  0  0  0  0  0  0  0  0  0  0  0
    0.4630    2.8207    0.0000 C   0  0  0  0  0  0  0  0  0  0  0  0
    1.0150    3.4338    0.0000 C   0  0  0  0  0  0  0  0  0  0  0  0
    0.7601    4.2184    0.0000 N   0  0  0  0  0  0  0  0  0  0  0  0
    1.3121    4.8315    0.0000 C   0  0  0  0  0  0  0  0  0  0  0  0
    2.1191    4.6600    0.0000 O   0  0  0  0  0  0  0  0  0  0  0  0
    1.0572    5.6161    0.0000 N   0  0  0  0  0  0  0  0  0  0  0  0
    1.6092    6.2292    0.0000 C   0  0  0  0  0  0  0  0  0  0  0  0
    1.3543    7.0139    0.0000 C   0  0  0  0  0  0  0  0  0  0  0  0
    1.9063    7.6270    0.0000 C   0  0  0  0  0  0  0  0  0  0  0  0
    2.7133    7.4554    0.0000 C   0  0  0  0  0  0  0  0  0  0  0  0
    2.9682    6.6708    0.0000 C   0  0  0  0  0  0  0  0  0  0  0  0
    2.4162    6.0577    0.0000 C   0  0  0  0  0  0  0  0  0  0  0  0
    2.6711    5.2731    0.0000 F   0  0  0  0  0  0  0  0  0  0  0  0
    1.6514    8.4116    0.0000 C   0  0  0  0  0  0  0  0  0  0  0  0
    1.3964    9.1962    0.0000 F   0  0  0  0  0  0  0  0  0  0  0  0
    2.4360    8.6665    0.0000 F   0  0  0  0  0  0  0  0  0  0  0  0
    0.8667    8.1566    0.0000 F   0  0  0  0  0  0  0  0  0  0  0  0
    1.8220    3.2623    0.0000 C   0  0  0  0  0  0  0  0  0  0  0  0
    2.0769    2.4777    0.0000 C   0  0  0  0  0  0  0  0  0  0  0  0
    2.5645    0.8250    0.0000 C   0  0  0  0  0  0  0  0  0  0  0  0
  1  2  1  0
  2  3  2  0
  3  4  1  0
  4  5  2  0
  5  6  1  0
  6  7  1  0
  7  8  1  0
  8  9  2  0
  9 10  1  0
 10 11  2  0
 11 12  1  0
 12 13  2  0
 13 14  1  0
 14 15  1  0
 15 16  2  0
 15 17  1  0
 17 18  1  0
 18 19  2  0
 19 20  1  0
 20 21  2  0
 21 22  1  0
 22 23  2  0
 18 23  1  0
 23 24  1  0
 20 25  1  0
 25 26  1  0
 25 27  1  0
 25 28  1  0
 13 29  1  0
 29 30  2  0
 10 30  1  0
  9 31  1  0
  2 31  1  0
  6 31  2  0
M  END
>  <pIC50>  (111) 
4.75

>  <chembl_id>  (111) 
CHEMBL247228

>  <canonical_smiles>  (111) 
Nc1ncnc2occ(c3ccc(NC(=O)Nc4cc(ccc4F)C(F)(F)F)cc3)c12

$$$$
CHEMBL258765
     RDKit          2D

 21 25  0  0  0  0  0  0  0  0999 V2000
    4.2320   -1.6167    0.0000 O   0  0  0  0  0  0  0  0  0  0  0  0
    4.0605   -0.8097    0.0000 C   0  0  0  0  0  0  0  0  0  0  0  0
    3.3068   -0.4742    0.0000 C   0  0  0  0  0  0  0  0  0  0  0  0
    2.5532   -0.8097    0.0000 C   0  0  0  0  0  0  0  0  0  0  0  0
    1.8857   -0.3248    0.0000 C   0  0  0  0  0  0  0  0  0  0  0  0
    1.9720    0.4957    0.0000 C   0  0  0  0  0  0  0  0  0  0  0  0
    2.7256    0.8312    0.0000 C   0  0  0  0  0  0  0  0  0  0  0  0
    3.3931    0.3463    0.0000 C   0  0  0  0  0  0  0  0  0  0  0  0
    4.2000    0.5178    0.0000 N   0  0  0  0  0  0  0  0  0  0  0  0
    4.6125    1.2323    0.0000 C   0  0  0  0  0  0  0  0  0  0  0  0
    5.4375    1.2323    0.0000 C   0  0  0  0  0  0  0  0  0  0  0  0
    5.8500    0.5178    0.0000 C   0  0  0  0  0  0  0  0  0  0  0  0
    6.6570    0.3463    0.0000 C   0  0  0  0  0  0  0  0  0  0  0  0
    7.3244    0.8312    0.0000 C   0  0  0  0  0  0  0  0  0  0  0  0
    8.0781    0.4957    0.0000 C   0  0  0  0  0  0  0  0  0  0  0  0
    8.1644   -0.3248    0.0000 C   0  0  0  0  0  0  0  0  0  0  0  0
    7.4969   -0.8097    0.0000 C   0  0  0  0  0  0  0  0  0  0  0  0
    6.7432   -0.4742    0.0000 C   0  0  0  0  0  0  0  0  0  0  0  0
    5.9896   -0.8097    0.0000 N   0  0  0  0  0  0  0  0  0  0  0  0
    5.4375   -0.1966    0.0000 C   0  0  0  0  0  0  0  0  0  0  0  0
    4.6125   -0.1966    0.0000 C   0  0  0  0  0  0  0  0  0  0  0  0
  1  2  2  0
  2  3  1  0
  3  4  2  0
  4  5  1  0
  5  6  2  0
  6  7  1  0
  7  8  2  0
  3  8  1  0
  8  9  1  0
  9 10  2  0
 10 11  1  0
 11 12  2  0
 12 13  1  0
 13 14  2  0
 14 15  1  0
 15 16  2  0
 16 17  1  0
 17 18  2  0
 13 18  1  0
 18 19  1  0
 19 20  1  0
 12 20  1  0
 20 21  2  0
  2 21  1  0
  9 21  1  0
M  CHG  1   9   1
M  END
>  <pIC50>  (112) 
3.30

>  <chembl_id>  (112) 
CHEMBL258765

>  <canonical_smiles>  (112) 
[Cl-].O=C1c2ccccc2[n+]3ccc4c5ccccc5[nH]c4c13

>  <salt#1>  (112) 
Unnamed

>  <salt#1 multiplicity>  (112) 
1

$$$$
CHEMBL258805
     RDKit          2D

 18 20  0  0  0  0  0  0  0  0999 V2000
    4.7812    1.9354    0.0000 C   0  0  0  0  0  0  0  0  0  0  0  0
    4.0668    2.3479    0.0000 O   0  0  0  0  0  0  0  0  0  0  0  0
    3.3523    1.9354    0.0000 C   0  0  0  0  0  0  0  0  0  0  0  0
    3.3523    1.1104    0.0000 C   0  0  0  0  0  0  0  0  0  0  0  0
    2.6378    0.6979    0.0000 C   0  0  0  0  0  0  0  0  0  0  0  0
    1.9233    1.1104    0.0000 C   0  0  0  0  0  0  0  0  0  0  0  0
    1.1387    0.8555    0.0000 N   0  0  0  0  0  0  0  0  0  0  0  0
    0.6538    1.5229    0.0000 C   0  0  0  0  0  0  0  0  0  0  0  0
   -0.1712    1.5229    0.0000 O   0  0  0  0  0  0  0  0  0  0  0  0
    1.1387    2.1904    0.0000 C   0  0  0  0  0  0  0  0  0  0  0  0
    0.8838    2.9750    0.0000 C   0  0  0  0  0  0  0  0  0  0  0  0
    0.0768    3.1465    0.0000 C   0  0  0  0  0  0  0  0  0  0  0  0
   -0.5363    2.5945    0.0000 C   0  0  0  0  0  0  0  0  0  0  0  0
   -1.2508    3.0070    0.0000 N   0  0  0  0  0  0  0  0  0  0  0  0
   -1.0792    3.8140    0.0000 C   0  0  0  0  0  0  0  0  0  0  0  0
   -0.2587    3.9002    0.0000 N   0  0  0  0  0  0  0  0  0  0  0  0
    1.9233    1.9354    0.0000 C   0  0  0  0  0  0  0  0  0  0  0  0
    2.6378    2.3479    0.0000 C   0  0  0  0  0  0  0  0  0  0  0  0
  1  2  1  0
  2  3  1  0
  3  4  2  0
  4  5  1  0
  5  6  2  0
  6  7  1  0
  7  8  1  0
  8  9  2  0
  8 10  1  0
 10 11  2  0
 11 12  1  0
 12 13  2  0
 13 14  1  0
 14 15  2  0
 15 16  1  0
 12 16  1  0
 10 17  1  0
  6 17  1  0
 17 18  2  0
  3 18  1  0
M  END
>  <pIC50>  (113) 
7.66

>  <chembl_id>  (113) 
CHEMBL258805

>  <canonical_smiles>  (113) 
COc1ccc2NC(=O)\C(=C/c3cnc[nH]3)\c2c1

$$$$
CHEMBL285527
     RDKit          2D

 21 23  0  0  0  0  0  0  0  0999 V2000
    2.2539   -2.4750    0.0000 O   0  0  0  0  0  0  0  0  0  0  0  0
    1.4289   -2.4750    0.0000 S   0  0  0  0  0  0  0  0  0  0  0  0
    0.6039   -2.4750    0.0000 O   0  0  0  0  0  0  0  0  0  0  0  0
    1.4289   -3.3000    0.0000 O   0  0  0  0  0  0  0  0  0  0  0  0
    1.4289   -1.6500    0.0000 C   0  0  0  0  0  0  0  0  0  0  0  0
    0.7145   -1.2375    0.0000 C   0  0  0  0  0  0  0  0  0  0  0  0
    0.7145   -0.4125    0.0000 C   0  0  0  0  0  0  0  0  0  0  0  0
    1.4289    0.0000    0.0000 C   0  0  0  0  0  0  0  0  0  0  0  0
    2.1434   -0.4125    0.0000 C   0  0  0  0  0  0  0  0  0  0  0  0
    2.8579    0.0000    0.0000 C   0  0  0  0  0  0  0  0  0  0  0  0
    3.5724   -0.4125    0.0000 C   0  0  0  0  0  0  0  0  0  0  0  0
    3.5724   -1.2375    0.0000 C   0  0  0  0  0  0  0  0  0  0  0  0
    2.8579   -1.6500    0.0000 C   0  0  0  0  0  0  0  0  0  0  0  0
    2.8579   -2.4750    0.0000 N   0  0  0  0  0  0  0  0  0  0  0  0
    3.5724   -2.8875    0.0000 C   0  0  0  0  0  0  0  0  0  0  0  0
    4.2868   -2.4750    0.0000 C   0  0  0  0  0  0  0  0  0  0  0  0
    5.0013   -2.8875    0.0000 C   0  0  0  0  0  0  0  0  0  0  0  0
    5.0013   -3.7125    0.0000 C   0  0  0  0  0  0  0  0  0  0  0  0
    4.2868   -4.1250    0.0000 C   0  0  0  0  0  0  0  0  0  0  0  0
    3.5724   -3.7125    0.0000 C   0  0  0  0  0  0  0  0  0  0  0  0
    2.1434   -1.2375    0.0000 C   0  0  0  0  0  0  0  0  0  0  0  0
  1  2  1  0
  2  3  2  0
  2  4  2  0
  2  5  1  0
  5  6  2  0
  6  7  1  0
  7  8  2  0
  8  9  1  0
  9 10  2  0
 10 11  1  0
 11 12  2  0
 12 13  1  0
 13 14  1  0
 14 15  1  0
 15 16  2  0
 16 17  1  0
 17 18  2  0
 18 19  1  0
 19 20  2  0
 15 20  1  0
 13 21  2  0
  5 21  1  0
  9 21  1  0
M  END
>  <pIC50>  (114) 
4.04

>  <chembl_id>  (114) 
CHEMBL285527

>  <canonical_smiles>  (114) 
OS(=O)(=O)c1cccc2cccc(Nc3ccccc3)c12

$$$$
CHEMBL3110144
     RDKit          2D

 26 30  0  0  0  0  0  0  0  0999 V2000
    0.3908    0.7955    0.0000 C   0  0  0  0  0  0  0  0  0  0  0  0
    0.2193   -0.0115    0.0000 C   0  0  0  0  0  0  0  0  0  0  0  0
   -0.5344   -0.3470    0.0000 N   0  0  0  0  0  0  0  0  0  0  0  0
   -0.4482   -1.1675    0.0000 N   0  0  0  0  0  0  0  0  0  0  0  0
   -1.0613   -1.7196    0.0000 C   0  0  0  0  0  0  0  0  0  0  0  0
   -0.8897   -2.5265    0.0000 C   0  0  0  0  0  0  0  0  0  0  0  0
   -1.5028   -3.0786    0.0000 C   0  0  0  0  0  0  0  0  0  0  0  0
   -2.2875   -2.8236    0.0000 C   0  0  0  0  0  0  0  0  0  0  0  0
   -2.9006   -3.3757    0.0000 Cl  0  0  0  0  0  0  0  0  0  0  0  0
   -2.4590   -2.0167    0.0000 C   0  0  0  0  0  0  0  0  0  0  0  0
   -1.8459   -1.4646    0.0000 C   0  0  0  0  0  0  0  0  0  0  0  0
   -2.0174   -0.6577    0.0000 Cl  0  0  0  0  0  0  0  0  0  0  0  0
    0.3588   -1.3391    0.0000 C   0  0  0  0  0  0  0  0  0  0  0  0
    0.7713   -0.6246    0.0000 C   0  0  0  0  0  0  0  0  0  0  0  0
    1.5963   -0.6246    0.0000 C   0  0  0  0  0  0  0  0  0  0  0  0
    2.1483   -0.0115    0.0000 C   0  0  0  0  0  0  0  0  0  0  0  0
    1.9768    0.7955    0.0000 O   0  0  0  0  0  0  0  0  0  0  0  0
    2.9020   -0.3470    0.0000 N   0  0  0  0  0  0  0  0  0  0  0  0
    2.8158   -1.1675    0.0000 C   0  0  0  0  0  0  0  0  0  0  0  0
    3.4289   -1.7196    0.0000 O   0  0  0  0  0  0  0  0  0  0  0  0
    2.0088   -1.3391    0.0000 C   0  0  0  0  0  0  0  0  0  0  0  0
    1.5963   -2.0535    0.0000 C   0  0  0  0  0  0  0  0  0  0  0  0
    1.8512   -2.8381    0.0000 C   0  0  0  0  0  0  0  0  0  0  0  0
    1.1838   -3.3231    0.0000 C   0  0  0  0  0  0  0  0  0  0  0  0
    0.5164   -2.8381    0.0000 C   0  0  0  0  0  0  0  0  0  0  0  0
    0.7713   -2.0535    0.0000 N   0  0  0  0  0  0  0  0  0  0  0  0
  1  2  1  0
  2  3  2  0
  3  4  1  0
  4  5  1  0
  5  6  2  0
  6  7  1  0
  7  8  2  0
  8  9  1  0
  8 10  1  0
 10 11  2  0
  5 11  1  0
 11 12  1  0
  4 13  1  0
 13 14  2  0
  2 14  1  0
 14 15  1  0
 15 16  1  0
 16 17  2  0
 16 18  1  0
 18 19  1  0
 19 20  2  0
 19 21  1  0
 15 21  2  0
 21 22  1  0
 22 23  2  0
 23 24  1  0
 24 25  2  0
 25 26  1  0
 13 26  1  0
 22 26  1  0
M  END
>  <pIC50>  (115) 
5.55

>  <chembl_id>  (115) 
CHEMBL3110144

>  <canonical_smiles>  (115) 
Cc1nn(c2ccc(Cl)cc2Cl)c3c1c4C(=O)NC(=O)c4c5cccn35

$$$$
CHEMBL3125721
     RDKit          2D

 37 41  0  0  0  0  0  0  0  0999 V2000
   -0.6284    4.4656    0.0000 C   0  0  0  0  0  0  0  0  0  0  0  0
   -0.2159    3.7511    0.0000 O   0  0  0  0  0  0  0  0  0  0  0  0
   -0.6284    3.0366    0.0000 C   0  0  0  0  0  0  0  0  0  0  0  0
   -0.2159    2.3221    0.0000 C   0  0  0  0  0  0  0  0  0  0  0  0
   -0.6284    1.6077    0.0000 C   0  0  0  0  0  0  0  0  0  0  0  0
   -1.4534    1.6077    0.0000 C   0  0  0  0  0  0  0  0  0  0  0  0
   -1.8659    2.3221    0.0000 C   0  0  0  0  0  0  0  0  0  0  0  0
   -1.4534    3.0366    0.0000 C   0  0  0  0  0  0  0  0  0  0  0  0
   -1.8659    0.8932    0.0000 C   0  0  0  0  0  0  0  0  0  0  0  0
   -1.5303    0.1395    0.0000 N   0  0  0  0  0  0  0  0  0  0  0  0
   -2.1434   -0.4125    0.0000 C   0  0  0  0  0  0  0  0  0  0  0  0
   -2.1434   -1.2375    0.0000 C   0  0  0  0  0  0  0  0  0  0  0  0
   -1.4289   -1.6500    0.0000 N   0  0  0  0  0  0  0  0  0  0  0  0
   -0.7145   -1.2375    0.0000 C   0  0  0  0  0  0  0  0  0  0  0  0
    0.0000   -1.6500    0.0000 C   0  0  0  0  0  0  0  0  0  0  0  0
    0.7145   -1.2375    0.0000 C   0  0  0  0  0  0  0  0  0  0  0  0
    1.4289   -1.6500    0.0000 N   0  0  0  0  0  0  0  0  0  0  0  0
    2.1434   -1.2375    0.0000 C   0  0  0  0  0  0  0  0  0  0  0  0
    2.1434   -0.4125    0.0000 O   0  0  0  0  0  0  0  0  0  0  0  0
    2.8579   -1.6500    0.0000 C   0  0  0  0  0  0  0  0  0  0  0  0
    3.6116   -1.3144    0.0000 C   0  0  0  0  0  0  0  0  0  0  0  0
    4.1636   -1.9275    0.0000 C   0  0  0  0  0  0  0  0  0  0  0  0
    3.7511   -2.6420    0.0000 C   0  0  0  0  0  0  0  0  0  0  0  0
    2.9441   -2.4705    0.0000 C   0  0  0  0  0  0  0  0  0  0  0  0
   -2.8579   -1.6500    0.0000 C   0  0  0  0  0  0  0  0  0  0  0  0
   -3.5724   -1.2375    0.0000 C   0  0  0  0  0  0  0  0  0  0  0  0
   -3.5724   -0.4125    0.0000 N   0  0  0  0  0  0  0  0  0  0  0  0
   -2.8579    0.0000    0.0000 C   0  0  0  0  0  0  0  0  0  0  0  0
   -2.6864    0.8070    0.0000 N   0  0  0  0  0  0  0  0  0  0  0  0
   -2.8579   -2.4750    0.0000 C   0  0  0  0  0  0  0  0  0  0  0  0
   -2.1904   -2.9599    0.0000 N   0  0  0  0  0  0  0  0  0  0  0  0
   -2.4454   -3.7445    0.0000 C   0  0  0  0  0  0  0  0  0  0  0  0
   -3.2704   -3.7445    0.0000 C   0  0  0  0  0  0  0  0  0  0  0  0
   -3.5253   -2.9599    0.0000 S   0  0  0  0  0  0  0  0  0  0  0  0
   -1.9605   -4.4120    0.0000 C   0  0  0  0  0  0  0  0  0  0  0  0
   -2.2960   -5.1657    0.0000 O   0  0  0  0  0  0  0  0  0  0  0  0
   -1.1400   -4.3257    0.0000 N   0  0  0  0  0  0  0  0  0  0  0  0
  1  2  1  0
  2  3  1  0
  3  4  2  0
  4  5  1  0
  5  6  2  0
  6  7  1  0
  7  8  2  0
  3  8  1  0
  6  9  1  0
  9 10  1  0
 10 11  1  0
 11 12  2  0
 12 13  1  0
 13 14  1  0
 14 15  1  0
 15 16  1  0
 16 17  1  0
 17 18  1  0
 18 19  2  0
 18 20  1  0
 20 21  1  0
 21 22  1  0
 22 23  1  0
 23 24  1  0
 20 24  1  0
 12 25  1  0
 25 26  2  0
 26 27  1  0
 27 28  2  0
 11 28  1  0
 28 29  1  0
  9 29  2  0
 25 30  1  0
 30 31  2  0
 31 32  1  0
 32 33  2  0
 33 34  1  0
 30 34  1  0
 32 35  1  0
 35 36  2  0
 35 37  1  0
M  END
>  <pIC50>  (116) 
5.84

>  <chembl_id>  (116) 
CHEMBL3125721

>  <canonical_smiles>  (116) 
COc1ccc(cc1)c2nc3c(NCCCNC(=O)C4CCCC4)c(cnc3[nH]2)c5nc(cs5)C(=O)N

$$$$
CHEMBL3125722
     RDKit          2D

 37 41  0  0  0  0  0  0  0  0999 V2000
   -0.6284    4.4656    0.0000 C   0  0  0  0  0  0  0  0  0  0  0  0
   -0.2159    3.7511    0.0000 O   0  0  0  0  0  0  0  0  0  0  0  0
   -0.6284    3.0366    0.0000 C   0  0  0  0  0  0  0  0  0  0  0  0
   -0.2159    2.3221    0.0000 C   0  0  0  0  0  0  0  0  0  0  0  0
   -0.6284    1.6077    0.0000 C   0  0  0  0  0  0  0  0  0  0  0  0
   -1.4534    1.6077    0.0000 C   0  0  0  0  0  0  0  0  0  0  0  0
   -1.8659    2.3221    0.0000 C   0  0  0  0  0  0  0  0  0  0  0  0
   -1.4534    3.0366    0.0000 C   0  0  0  0  0  0  0  0  0  0  0  0
   -1.8659    0.8932    0.0000 C   0  0  0  0  0  0  0  0  0  0  0  0
   -1.5303    0.1395    0.0000 N   0  0  0  0  0  0  0  0  0  0  0  0
   -2.1434   -0.4125    0.0000 C   0  0  0  0  0  0  0  0  0  0  0  0
   -2.1434   -1.2375    0.0000 C   0  0  0  0  0  0  0  0  0  0  0  0
   -1.4289   -1.6500    0.0000 N   0  0  0  0  0  0  0  0  0  0  0  0
   -0.7145   -1.2375    0.0000 C   0  0  0  0  0  0  0  0  0  0  0  0
    0.0000   -1.6500    0.0000 C   0  0  0  0  0  0  0  0  0  0  0  0
    0.7145   -1.2375    0.0000 C   0  0  0  0  0  0  0  0  0  0  0  0
    1.4289   -1.6500    0.0000 N   0  0  0  0  0  0  0  0  0  0  0  0
    2.1434   -1.2375    0.0000 C   0  0  0  0  0  0  0  0  0  0  0  0
    2.1434   -0.4125    0.0000 O   0  0  0  0  0  0  0  0  0  0  0  0
    2.8579   -1.6500    0.0000 C   0  0  0  0  0  0  0  0  0  0  0  0
    3.6116   -1.3144    0.0000 C   0  0  0  0  0  0  0  0  0  0  0  0
    4.1636   -1.9275    0.0000 C   0  0  0  0  0  0  0  0  0  0  0  0
    3.7511   -2.6420    0.0000 C   0  0  0  0  0  0  0  0  0  0  0  0
    2.9441   -2.4705    0.0000 C   0  0  0  0  0  0  0  0  0  0  0  0
   -2.8579   -1.6500    0.0000 C   0  0  0  0  0  0  0  0  0  0  0  0
   -3.5724   -1.2375    0.0000 C   0  0  0  0  0  0  0  0  0  0  0  0
   -3.5724   -0.4125    0.0000 N   0  0  0  0  0  0  0  0  0  0  0  0
   -2.8579    0.0000    0.0000 C   0  0  0  0  0  0  0  0  0  0  0  0
   -2.6864    0.8070    0.0000 N   0  0  0  0  0  0  0  0  0  0  0  0
   -2.8579   -2.4750    0.0000 C   0  0  0  0  0  0  0  0  0  0  0  0
   -2.1904   -2.9599    0.0000 N   0  0  0  0  0  0  0  0  0  0  0  0
   -2.4454   -3.7445    0.0000 C   0  0  0  0  0  0  0  0  0  0  0  0
   -3.2704   -3.7445    0.0000 C   0  0  0  0  0  0  0  0  0  0  0  0
   -3.5253   -2.9599    0.0000 S   0  0  0  0  0  0  0  0  0  0  0  0
   -1.9605   -4.4120    0.0000 C   0  0  0  0  0  0  0  0  0  0  0  0
   -2.2960   -5.1657    0.0000 O   0  0  0  0  0  0  0  0  0  0  0  0
   -1.1400   -4.3257    0.0000 O   0  0  0  0  0  0  0  0  0  0  0  0
  1  2  1  0
  2  3  1  0
  3  4  2  0
  4  5  1  0
  5  6  2  0
  6  7  1  0
  7  8  2  0
  3  8  1  0
  6  9  1  0
  9 10  1  0
 10 11  1  0
 11 12  2  0
 12 13  1  0
 13 14  1  0
 14 15  1  0
 15 16  1  0
 16 17  1  0
 17 18  1  0
 18 19  2  0
 18 20  1  0
 20 21  1  0
 21 22  1  0
 22 23  1  0
 23 24  1  0
 20 24  1  0
 12 25  1  0
 25 26  2  0
 26 27  1  0
 27 28  2  0
 11 28  1  0
 28 29  1  0
  9 29  2  0
 25 30  1  0
 30 31  2  0
 31 32  1  0
 32 33  2  0
 33 34  1  0
 30 34  1  0
 32 35  1  0
 35 36  2  0
 35 37  1  0
M  END
>  <pIC50>  (117) 
4.87

>  <chembl_id>  (117) 
CHEMBL3125722

>  <canonical_smiles>  (117) 
COc1ccc(cc1)c2nc3c(NCCCNC(=O)C4CCCC4)c(cnc3[nH]2)c5nc(cs5)C(=O)O

$$$$
CHEMBL3125732
     RDKit          2D

 25 28  0  0  0  0  0  0  0  0999 V2000
   -3.0587   -1.4124    0.0000 C   0  0  0  0  0  0  0  0  0  0  0  0
   -2.6462   -0.6979    0.0000 O   0  0  0  0  0  0  0  0  0  0  0  0
   -1.8212   -0.6979    0.0000 C   0  0  0  0  0  0  0  0  0  0  0  0
   -1.4087    0.0165    0.0000 C   0  0  0  0  0  0  0  0  0  0  0  0
   -0.5837    0.0165    0.0000 C   0  0  0  0  0  0  0  0  0  0  0  0
   -0.1712   -0.6979    0.0000 C   0  0  0  0  0  0  0  0  0  0  0  0
   -0.5837   -1.4124    0.0000 C   0  0  0  0  0  0  0  0  0  0  0  0
   -1.4087   -1.4124    0.0000 C   0  0  0  0  0  0  0  0  0  0  0  0
    0.6538   -0.6979    0.0000 C   0  0  0  0  0  0  0  0  0  0  0  0
    1.1387   -0.0305    0.0000 N   0  0  0  0  0  0  0  0  0  0  0  0
    1.9233   -0.2854    0.0000 C   0  0  0  0  0  0  0  0  0  0  0  0
    2.6378    0.1271    0.0000 C   0  0  0  0  0  0  0  0  0  0  0  0
    3.3523   -0.2854    0.0000 C   0  0  0  0  0  0  0  0  0  0  0  0
    3.3523   -1.1104    0.0000 C   0  0  0  0  0  0  0  0  0  0  0  0
    2.6378   -1.5229    0.0000 N   0  0  0  0  0  0  0  0  0  0  0  0
    1.9233   -1.1104    0.0000 C   0  0  0  0  0  0  0  0  0  0  0  0
    1.1387   -1.3654    0.0000 N   0  0  0  0  0  0  0  0  0  0  0  0
    4.0668    0.1271    0.0000 C   0  0  0  0  0  0  0  0  0  0  0  0
    4.1530    0.9475    0.0000 C   0  0  0  0  0  0  0  0  0  0  0  0
    4.9600    1.1191    0.0000 S   0  0  0  0  0  0  0  0  0  0  0  0
    5.3725    0.4046    0.0000 C   0  0  0  0  0  0  0  0  0  0  0  0
    4.8204   -0.2085    0.0000 C   0  0  0  0  0  0  0  0  0  0  0  0
    6.1929    0.3184    0.0000 C   0  0  0  0  0  0  0  0  0  0  0  0
    6.6779    0.9858    0.0000 O   0  0  0  0  0  0  0  0  0  0  0  0
    6.5285   -0.4353    0.0000 N   0  0  0  0  0  0  0  0  0  0  0  0
  1  2  1  0
  2  3  1  0
  3  4  2  0
  4  5  1  0
  5  6  2  0
  6  7  1  0
  7  8  2  0
  3  8  1  0
  6  9  1  0
  9 10  1  0
 10 11  1  0
 11 12  2  0
 12 13  1  0
 13 14  2  0
 14 15  1  0
 15 16  2  0
 11 16  1  0
 16 17  1  0
  9 17  2  0
 13 18  1  0
 18 19  2  0
 19 20  1  0
 20 21  1  0
 21 22  2  0
 18 22  1  0
 21 23  1  0
 23 24  2  0
 23 25  1  0
M  END
>  <pIC50>  (118) 
6.01

>  <chembl_id>  (118) 
CHEMBL3125732

>  <canonical_smiles>  (118) 
COc1ccc(cc1)c2nc3cc(cnc3[nH]2)c4csc(c4)C(=O)N

$$$$
CHEMBL3134612
     RDKit          2D

 26 28  0  0  0  0  0  0  0  0999 V2000
    2.8579    0.0000    0.0000 C   0  0  0  0  0  0  0  0  0  0  0  0
    3.5724   -0.4125    0.0000 O   0  0  0  0  0  0  0  0  0  0  0  0
    3.5724   -1.2375    0.0000 C   0  0  0  0  0  0  0  0  0  0  0  0
    4.2868   -1.6500    0.0000 C   0  0  0  0  0  0  0  0  0  0  0  0
    4.2868   -2.4750    0.0000 C   0  0  0  0  0  0  0  0  0  0  0  0
    5.0013   -2.8875    0.0000 N   0  0  0  0  0  0  0  0  0  0  0  0
    5.0013   -3.7125    0.0000 C   0  0  0  0  0  0  0  0  0  0  0  0
    5.7158   -4.1250    0.0000 N   0  0  0  0  0  0  0  0  0  0  0  0
    5.7158   -4.9500    0.0000 C   0  0  0  0  0  0  0  0  0  0  0  0
    5.0013   -5.3625    0.0000 C   0  0  0  0  0  0  0  0  0  0  0  0
    4.2868   -4.9500    0.0000 C   0  0  0  0  0  0  0  0  0  0  0  0
    4.2868   -4.1250    0.0000 N   0  0  0  0  0  0  0  0  0  0  0  0
    3.5724   -5.3625    0.0000 C   0  0  0  0  0  0  0  0  0  0  0  0
    3.5724   -6.1875    0.0000 C   0  0  0  0  0  0  0  0  0  0  0  0
    2.8579   -6.6000    0.0000 C   0  0  0  0  0  0  0  0  0  0  0  0
    2.1434   -6.1875    0.0000 C   0  0  0  0  0  0  0  0  0  0  0  0
    1.4289   -6.6000    0.0000 Cl  0  0  0  0  0  0  0  0  0  0  0  0
    2.1434   -5.3625    0.0000 C   0  0  0  0  0  0  0  0  0  0  0  0
    2.8579   -4.9500    0.0000 C   0  0  0  0  0  0  0  0  0  0  0  0
    3.5724   -2.8875    0.0000 C   0  0  0  0  0  0  0  0  0  0  0  0
    2.8579   -2.4750    0.0000 C   0  0  0  0  0  0  0  0  0  0  0  0
    2.1434   -2.8875    0.0000 O   0  0  0  0  0  0  0  0  0  0  0  0
    1.4289   -2.4750    0.0000 C   0  0  0  0  0  0  0  0  0  0  0  0
    2.8579   -1.6500    0.0000 C   0  0  0  0  0  0  0  0  0  0  0  0
    2.1434   -1.2375    0.0000 O   0  0  0  0  0  0  0  0  0  0  0  0
    1.4289   -1.6500    0.0000 C   0  0  0  0  0  0  0  0  0  0  0  0
  1  2  1  0
  2  3  1  0
  3  4  2  0
  4  5  1  0
  5  6  1  0
  6  7  1  0
  7  8  2  0
  8  9  1  0
  9 10  2  0
 10 11  1  0
 11 12  2  0
  7 12  1  0
 11 13  1  0
 13 14  2  0
 14 15  1  0
 15 16  2  0
 16 17  1  0
 16 18  1  0
 18 19  2  0
 13 19  1  0
  5 20  2  0
 20 21  1  0
 21 22  1  0
 22 23  1  0
 21 24  2  0
  3 24  1  0
 24 25  1  0
 25 26  1  0
M  END
>  <pIC50>  (119) 
4.73

>  <chembl_id>  (119) 
CHEMBL3134612

>  <canonical_smiles>  (119) 
COc1cc(Nc2nccc(n2)c3ccc(Cl)cc3)cc(OC)c1OC

$$$$
CHEMBL315837
     RDKit          2D

 23 25  0  0  0  0  0  0  0  0999 V2000
    0.4730   -0.0110    0.0000 C   0  0  0  0  0  0  0  0  0  0  0  0
   -0.3340   -0.1826    0.0000 C   0  0  0  0  0  0  0  0  0  0  0  0
   -0.5889   -0.9672    0.0000 C   0  0  0  0  0  0  0  0  0  0  0  0
   -0.8860    0.4305    0.0000 N   0  0  0  0  0  0  0  0  0  0  0  0
   -1.7065    0.3443    0.0000 C   0  0  0  0  0  0  0  0  0  0  0  0
   -2.0420    1.0980    0.0000 N   0  0  0  0  0  0  0  0  0  0  0  0
   -1.4289    1.6500    0.0000 C   0  0  0  0  0  0  0  0  0  0  0  0
   -1.4289    2.4750    0.0000 C   0  0  0  0  0  0  0  0  0  0  0  0
   -2.1434    2.8875    0.0000 N   0  0  0  0  0  0  0  0  0  0  0  0
   -2.8579    2.4750    0.0000 C   0  0  0  0  0  0  0  0  0  0  0  0
   -2.9441    1.6545    0.0000 C   0  0  0  0  0  0  0  0  0  0  0  0
   -3.7511    1.4830    0.0000 C   0  0  0  0  0  0  0  0  0  0  0  0
   -4.1636    2.1975    0.0000 C   0  0  0  0  0  0  0  0  0  0  0  0
   -3.6116    2.8106    0.0000 C   0  0  0  0  0  0  0  0  0  0  0  0
   -0.7145    2.8875    0.0000 N   0  0  0  0  0  0  0  0  0  0  0  0
    0.0000    2.4750    0.0000 C   0  0  0  0  0  0  0  0  0  0  0  0
    0.7145    2.8875    0.0000 N   0  0  0  0  0  0  0  0  0  0  0  0
    1.4289    2.4750    0.0000 C   0  0  0  0  0  0  0  0  0  0  0  0
    2.1434    2.8875    0.0000 C   0  0  0  0  0  0  0  0  0  0  0  0
    2.8579    2.4750    0.0000 C   0  0  0  0  0  0  0  0  0  0  0  0
    3.5724    2.8875    0.0000 O   0  0  0  0  0  0  0  0  0  0  0  0
    0.0000    1.6500    0.0000 N   0  0  0  0  0  0  0  0  0  0  0  0
   -0.7145    1.2375    0.0000 C   0  0  0  0  0  0  0  0  0  0  0  0
  1  2  1  0
  2  3  1  0
  2  4  1  0
  4  5  1  0
  5  6  2  0
  6  7  1  0
  7  8  2  0
  8  9  1  0
  9 10  1  0
 10 11  1  0
 11 12  1  0
 12 13  1  0
 13 14  1  0
 10 14  1  0
  8 15  1  0
 15 16  2  0
 16 17  1  0
 17 18  1  0
 18 19  1  0
 19 20  1  0
 20 21  1  0
 16 22  1  0
 22 23  2  0
  4 23  1  0
  7 23  1  0
M  END
>  <pIC50>  (120) 
6.05

>  <chembl_id>  (120) 
CHEMBL315837

>  <canonical_smiles>  (120) 
CC(C)n1cnc2c(NC3CCCC3)nc(NCCCO)nc12

$$$$
CHEMBL3217993
     RDKit          2D

 36 40  0  0  0  0  0  0  0  0999 V2000
   -3.5724   -5.3625    0.0000 N   0  0  0  0  0  0  0  0  0  0  0  0
   -4.2868   -4.9500    0.0000 C   0  0  0  0  0  0  0  0  0  0  0  0
   -5.0013   -5.3625    0.0000 C   0  0  0  0  0  0  0  0  0  0  0  0
   -5.7158   -4.9500    0.0000 C   0  0  0  0  0  0  0  0  0  0  0  0
   -5.7158   -4.1250    0.0000 C   0  0  0  0  0  0  0  0  0  0  0  0
   -5.0013   -3.7125    0.0000 C   0  0  0  0  0  0  0  0  0  0  0  0
   -4.2868   -4.1250    0.0000 C   0  0  0  0  0  0  0  0  0  0  0  0
   -3.5724   -3.7125    0.0000 N   0  0  0  0  0  0  0  0  0  0  0  0
   -3.5724   -2.8875    0.0000 C   0  0  0  0  0  0  0  0  0  0  0  0
   -4.2868   -2.4750    0.0000 O   0  0  0  0  0  0  0  0  0  0  0  0
   -2.8579   -2.4750    0.0000 C   0  0  0  0  0  0  0  0  0  0  0  0
   -2.8579   -1.6500    0.0000 C   0  0  0  0  0  0  0  0  0  0  0  0
   -2.1434   -1.2375    0.0000 C   0  0  0  0  0  0  0  0  0  0  0  0
   -1.4289   -1.6500    0.0000 C   0  0  0  0  0  0  0  0  0  0  0  0
   -0.7145   -1.2375    0.0000 C   0  0  0  0  0  0  0  0  0  0  0  0
    0.0000   -1.6500    0.0000 O   0  0  0  0  0  0  0  0  0  0  0  0
    0.7145   -1.2375    0.0000 C   0  0  0  0  0  0  0  0  0  0  0  0
    0.7145   -0.4125    0.0000 C   0  0  0  0  0  0  0  0  0  0  0  0
    1.4289    0.0000    0.0000 C   0  0  0  0  0  0  0  0  0  0  0  0
    2.1434   -0.4125    0.0000 C   0  0  0  0  0  0  0  0  0  0  0  0
    2.8579    0.0000    0.0000 N   0  0  0  0  0  0  0  0  0  0  0  0
    3.5724   -0.4125    0.0000 C   0  0  0  0  0  0  0  0  0  0  0  0
    3.5724   -1.2375    0.0000 N   0  0  0  0  0  0  0  0  0  0  0  0
    2.8579   -1.6500    0.0000 C   0  0  0  0  0  0  0  0  0  0  0  0
    2.8579   -2.4750    0.0000 N   0  0  0  0  0  0  0  0  0  0  0  0
    3.5724   -2.8875    0.0000 C   0  0  0  0  0  0  0  0  0  0  0  0
    4.2868   -2.4750    0.0000 C   0  0  0  0  0  0  0  0  0  0  0  0
    5.0013   -2.8875    0.0000 C   0  0  0  0  0  0  0  0  0  0  0  0
    5.0013   -3.7125    0.0000 C   0  0  0  0  0  0  0  0  0  0  0  0
    4.2868   -4.1250    0.0000 C   0  0  0  0  0  0  0  0  0  0  0  0
    4.2868   -4.9500    0.0000 Br  0  0  0  0  0  0  0  0  0  0  0  0
    3.5724   -3.7125    0.0000 C   0  0  0  0  0  0  0  0  0  0  0  0
    2.1434   -1.2375    0.0000 C   0  0  0  0  0  0  0  0  0  0  0  0
    1.4289   -1.6500    0.0000 C   0  0  0  0  0  0  0  0  0  0  0  0
   -1.4289   -2.4750    0.0000 C   0  0  0  0  0  0  0  0  0  0  0  0
   -2.1434   -2.8875    0.0000 C   0  0  0  0  0  0  0  0  0  0  0  0
  1  2  1  0
  2  3  2  0
  3  4  1  0
  4  5  2  0
  5  6  1  0
  6  7  2  0
  2  7  1  0
  7  8  1  0
  8  9  1  0
  9 10  2  0
  9 11  1  0
 11 12  2  0
 12 13  1  0
 13 14  2  0
 14 15  1  0
 15 16  1  0
 16 17  1  0
 17 18  2  0
 18 19  1  0
 19 20  2  0
 20 21  1  0
 21 22  2  0
 22 23  1  0
 23 24  2  0
 24 25  1  0
 25 26  1  0
 26 27  2  0
 27 28  1  0
 28 29  2  0
 29 30  1  0
 30 31  1  0
 30 32  2  0
 26 32  1  0
 24 33  1  0
 20 33  1  0
 33 34  2  0
 17 34  1  0
 14 35  1  0
 35 36  2  0
 11 36  1  0
M  END
>  <pIC50>  (121) 
4.66

>  <chembl_id>  (121) 
CHEMBL3217993

>  <canonical_smiles>  (121) 
Nc1ccccc1NC(=O)c2ccc(COc3ccc4ncnc(Nc5cccc(Br)c5)c4c3)cc2

$$$$
CHEMBL3218000
     RDKit          2D

 37 41  0  0  0  0  0  0  0  0999 V2000
   -2.8579    3.3000    0.0000 N   0  0  0  0  0  0  0  0  0  0  0  0
   -2.1434    3.7125    0.0000 C   0  0  0  0  0  0  0  0  0  0  0  0
   -2.1434    4.5375    0.0000 C   0  0  0  0  0  0  0  0  0  0  0  0
   -1.4289    4.9500    0.0000 C   0  0  0  0  0  0  0  0  0  0  0  0
   -0.7145    4.5375    0.0000 C   0  0  0  0  0  0  0  0  0  0  0  0
   -0.7145    3.7125    0.0000 C   0  0  0  0  0  0  0  0  0  0  0  0
   -1.4289    3.3000    0.0000 C   0  0  0  0  0  0  0  0  0  0  0  0
   -1.4289    2.4750    0.0000 N   0  0  0  0  0  0  0  0  0  0  0  0
   -0.7145    2.0625    0.0000 C   0  0  0  0  0  0  0  0  0  0  0  0
    0.0000    2.4750    0.0000 O   0  0  0  0  0  0  0  0  0  0  0  0
   -0.7145    1.2375    0.0000 C   0  0  0  0  0  0  0  0  0  0  0  0
    0.0000    0.8250    0.0000 C   0  0  0  0  0  0  0  0  0  0  0  0
    0.0000    0.0000    0.0000 C   0  0  0  0  0  0  0  0  0  0  0  0
   -0.7145   -0.4125    0.0000 C   0  0  0  0  0  0  0  0  0  0  0  0
   -0.7145   -1.2375    0.0000 C   0  0  0  0  0  0  0  0  0  0  0  0
    0.0000   -1.6500    0.0000 O   0  0  0  0  0  0  0  0  0  0  0  0
    0.7145   -1.2375    0.0000 C   0  0  0  0  0  0  0  0  0  0  0  0
    0.7145   -0.4125    0.0000 C   0  0  0  0  0  0  0  0  0  0  0  0
    1.4289    0.0000    0.0000 C   0  0  0  0  0  0  0  0  0  0  0  0
    2.1434   -0.4125    0.0000 C   0  0  0  0  0  0  0  0  0  0  0  0
    2.8579    0.0000    0.0000 N   0  0  0  0  0  0  0  0  0  0  0  0
    3.5724   -0.4125    0.0000 C   0  0  0  0  0  0  0  0  0  0  0  0
    3.5724   -1.2375    0.0000 N   0  0  0  0  0  0  0  0  0  0  0  0
    2.8579   -1.6500    0.0000 C   0  0  0  0  0  0  0  0  0  0  0  0
    2.8579   -2.4750    0.0000 N   0  0  0  0  0  0  0  0  0  0  0  0
    3.5724   -2.8875    0.0000 C   0  0  0  0  0  0  0  0  0  0  0  0
    4.2868   -2.4750    0.0000 C   0  0  0  0  0  0  0  0  0  0  0  0
    5.0013   -2.8875    0.0000 C   0  0  0  0  0  0  0  0  0  0  0  0
    5.0013   -3.7125    0.0000 C   0  0  0  0  0  0  0  0  0  0  0  0
    4.2868   -4.1250    0.0000 C   0  0  0  0  0  0  0  0  0  0  0  0
    3.5724   -3.7125    0.0000 C   0  0  0  0  0  0  0  0  0  0  0  0
    4.2868   -4.9500    0.0000 C   0  0  0  0  0  0  0  0  0  0  0  0
    4.2868   -5.7750    0.0000 C   0  0  0  0  0  0  0  0  0  0  0  0
    2.1434   -1.2375    0.0000 C   0  0  0  0  0  0  0  0  0  0  0  0
    1.4289   -1.6500    0.0000 C   0  0  0  0  0  0  0  0  0  0  0  0
   -1.4289    0.0000    0.0000 C   0  0  0  0  0  0  0  0  0  0  0  0
   -1.4289    0.8250    0.0000 C   0  0  0  0  0  0  0  0  0  0  0  0
  1  2  1  0
  2  3  2  0
  3  4  1  0
  4  5  2  0
  5  6  1  0
  6  7  2  0
  2  7  1  0
  7  8  1  0
  8  9  1  0
  9 10  2  0
  9 11  1  0
 11 12  2  0
 12 13  1  0
 13 14  2  0
 14 15  1  0
 15 16  1  0
 16 17  1  0
 17 18  2  0
 18 19  1  0
 19 20  2  0
 20 21  1  0
 21 22  2  0
 22 23  1  0
 23 24  2  0
 24 25  1  0
 25 26  1  0
 26 27  2  0
 27 28  1  0
 28 29  2  0
 29 30  1  0
 30 31  2  0
 26 31  1  0
 30 32  1  0
 32 33  3  0
 24 34  1  0
 20 34  1  0
 34 35  2  0
 17 35  1  0
 14 36  1  0
 36 37  2  0
 11 37  1  0
M  END
>  <pIC50>  (122) 
4.89

>  <chembl_id>  (122) 
CHEMBL3218000

>  <canonical_smiles>  (122) 
Nc1ccccc1NC(=O)c2ccc(COc3ccc4ncnc(Nc5cccc(c5)C#C)c4c3)cc2

$$$$
CHEMBL3218001
     RDKit          2D

 39 43  0  0  0  0  0  0  0  0999 V2000
   -2.9499   -6.0692    0.0000 N   0  0  0  0  0  0  0  0  0  0  0  0
   -3.7704   -6.1554    0.0000 C   0  0  0  0  0  0  0  0  0  0  0  0
   -4.1059   -6.9091    0.0000 C   0  0  0  0  0  0  0  0  0  0  0  0
   -4.9264   -6.9954    0.0000 C   0  0  0  0  0  0  0  0  0  0  0  0
   -5.4114   -6.3279    0.0000 C   0  0  0  0  0  0  0  0  0  0  0  0
   -5.0758   -5.5742    0.0000 C   0  0  0  0  0  0  0  0  0  0  0  0
   -4.2553   -5.4880    0.0000 C   0  0  0  0  0  0  0  0  0  0  0  0
   -3.9198   -4.7343    0.0000 N   0  0  0  0  0  0  0  0  0  0  0  0
   -3.0993   -4.6481    0.0000 C   0  0  0  0  0  0  0  0  0  0  0  0
   -2.6144   -5.3155    0.0000 O   0  0  0  0  0  0  0  0  0  0  0  0
   -2.7637   -3.8944    0.0000 C   0  0  0  0  0  0  0  0  0  0  0  0
   -1.9432   -3.8082    0.0000 C   0  0  0  0  0  0  0  0  0  0  0  0
   -1.6077   -3.0545    0.0000 C   0  0  0  0  0  0  0  0  0  0  0  0
   -2.0202   -2.3400    0.0000 C   0  0  0  0  0  0  0  0  0  0  0  0
   -1.4681   -1.7269    0.0000 C   0  0  0  0  0  0  0  0  0  0  0  0
   -0.7145   -2.0625    0.0000 N   0  0  0  0  0  0  0  0  0  0  0  0
   -0.8007   -2.8830    0.0000 C   0  0  0  0  0  0  0  0  0  0  0  0
    0.0000   -1.6500    0.0000 S   0  0  0  0  0  0  0  0  0  0  0  0
    0.4125   -2.3645    0.0000 O   0  0  0  0  0  0  0  0  0  0  0  0
   -0.4125   -0.9355    0.0000 O   0  0  0  0  0  0  0  0  0  0  0  0
    0.7145   -1.2375    0.0000 C   0  0  0  0  0  0  0  0  0  0  0  0
    0.7145   -0.4125    0.0000 C   0  0  0  0  0  0  0  0  0  0  0  0
    1.4289    0.0000    0.0000 C   0  0  0  0  0  0  0  0  0  0  0  0
    2.1434   -0.4125    0.0000 C   0  0  0  0  0  0  0  0  0  0  0  0
    2.8579    0.0000    0.0000 N   0  0  0  0  0  0  0  0  0  0  0  0
    3.5724   -0.4125    0.0000 C   0  0  0  0  0  0  0  0  0  0  0  0
    3.5724   -1.2375    0.0000 N   0  0  0  0  0  0  0  0  0  0  0  0
    2.8579   -1.6500    0.0000 C   0  0  0  0  0  0  0  0  0  0  0  0
    2.8579   -2.4750    0.0000 N   0  0  0  0  0  0  0  0  0  0  0  0
    3.5724   -2.8875    0.0000 C   0  0  0  0  0  0  0  0  0  0  0  0
    4.2868   -2.4750    0.0000 C   0  0  0  0  0  0  0  0  0  0  0  0
    5.0013   -2.8875    0.0000 C   0  0  0  0  0  0  0  0  0  0  0  0
    5.0013   -3.7125    0.0000 C   0  0  0  0  0  0  0  0  0  0  0  0
    4.2868   -4.1250    0.0000 C   0  0  0  0  0  0  0  0  0  0  0  0
    3.5724   -3.7125    0.0000 C   0  0  0  0  0  0  0  0  0  0  0  0
    4.2868   -4.9500    0.0000 C   0  0  0  0  0  0  0  0  0  0  0  0
    4.2868   -5.7750    0.0000 C   0  0  0  0  0  0  0  0  0  0  0  0
    2.1434   -1.2375    0.0000 C   0  0  0  0  0  0  0  0  0  0  0  0
    1.4289   -1.6500    0.0000 C   0  0  0  0  0  0  0  0  0  0  0  0
  1  2  1  0
  2  3  2  0
  3  4  1  0
  4  5  2  0
  5  6  1  0
  6  7  2  0
  2  7  1  0
  7  8  1  0
  8  9  1  0
  9 10  2  0
  9 11  1  0
 11 12  2  0
 12 13  1  0
 13 14  1  0
 14 15  2  0
 15 16  1  0
 16 17  1  0
 13 17  2  0
 16 18  1  0
 18 19  2  0
 18 20  2  0
 18 21  1  0
 21 22  2  0
 22 23  1  0
 23 24  2  0
 24 25  1  0
 25 26  2  0
 26 27  1  0
 27 28  2  0
 28 29  1  0
 29 30  1  0
 30 31  2  0
 31 32  1  0
 32 33  2  0
 33 34  1  0
 34 35  2  0
 30 35  1  0
 34 36  1  0
 36 37  3  0
 28 38  1  0
 24 38  1  0
 38 39  2  0
 21 39  1  0
M  END
>  <pIC50>  (123) 
4.77

>  <chembl_id>  (123) 
CHEMBL3218001

>  <canonical_smiles>  (123) 
Nc1ccccc1NC(=O)\C=C\c2ccn(c2)S(=O)(=O)c3ccc4ncnc(Nc5cccc(c5)C#C)c4c3

$$$$
CHEMBL3298199
     RDKit          2D

 32 35  0  0  1  0  0  0  0  0999 V2000
   -1.4289   -2.4750    0.0000 C   0  0  0  0  0  0  0  0  0  0  0  0
   -1.4289   -1.6500    0.0000 C   0  0  0  0  0  0  0  0  0  0  0  0
   -0.7145   -1.2375    0.0000 N   0  0  0  0  0  0  0  0  0  0  0  0
    0.0000   -1.6500    0.0000 C   0  0  0  0  0  0  0  0  0  0  0  0
    0.0000   -2.4750    0.0000 O   0  0  0  0  0  0  0  0  0  0  0  0
    0.7145   -1.2375    0.0000 N   0  0  0  0  0  0  0  0  0  0  0  0
    0.7145   -0.4125    0.0000 C   0  0  0  0  0  0  0  0  0  0  0  0
    1.4289    0.0000    0.0000 C   0  0  0  0  0  0  0  0  0  0  0  0
    2.1434   -0.4125    0.0000 C   0  0  0  0  0  0  0  0  0  0  0  0
    2.8579    0.0000    0.0000 C   0  0  0  0  0  0  0  0  0  0  0  0
    3.5724   -0.4125    0.0000 N   0  0  0  0  0  0  0  0  0  0  0  0
    3.5724   -1.2375    0.0000 C   0  0  0  0  0  0  0  0  0  0  0  0
    4.2868   -1.6500    0.0000 N   0  0  0  0  0  0  0  0  0  0  0  0
    5.0013   -1.2375    0.0000 C   0  0  0  0  0  0  0  0  0  0  0  0
    5.0013   -0.4125    0.0000 C   0  0  0  0  0  0  0  0  0  0  0  0
    5.7158    0.0000    0.0000 C   0  0  0  0  0  0  0  0  0  0  0  0
    6.4302   -0.4125    0.0000 O   0  0  0  0  0  0  0  0  0  0  0  0
    6.4302   -1.2375    0.0000 C   0  0  0  0  0  0  0  0  0  0  0  0
    7.1447   -1.6500    0.0000 C   0  0  0  0  0  0  0  0  0  0  0  0
    7.8592   -1.2375    0.0000 O   0  0  0  0  0  0  0  0  0  0  0  0
    5.7158   -1.6500    0.0000 C   0  0  0  0  0  0  0  0  0  0  0  0
    2.8579   -1.6500    0.0000 N   0  0  0  0  0  0  0  0  0  0  0  0
    2.1434   -1.2375    0.0000 C   0  0  0  0  0  0  0  0  0  0  0  0
    1.4289   -1.6500    0.0000 C   0  0  0  0  0  0  0  0  0  0  0  0
   -2.1434   -1.2375    0.0000 C   0  0  0  0  0  0  0  0  0  0  0  0
   -2.8579   -1.6500    0.0000 C   0  0  0  0  0  0  0  0  0  0  0  0
   -3.5724   -1.2375    0.0000 C   0  0  0  0  0  0  0  0  0  0  0  0
   -3.5724   -0.4125    0.0000 C   0  0  0  0  0  0  0  0  0  0  0  0
   -4.2868    0.0000    0.0000 Cl  0  0  0  0  0  0  0  0  0  0  0  0
   -2.8579    0.0000    0.0000 C   0  0  0  0  0  0  0  0  0  0  0  0
   -2.8579    0.8250    0.0000 Cl  0  0  0  0  0  0  0  0  0  0  0  0
   -2.1434   -0.4125    0.0000 C   0  0  0  0  0  0  0  0  0  0  0  0
  2  1  1  6
  2  3  1  0
  3  4  1  0
  4  5  2  0
  4  6  1  0
  6  7  1  0
  7  8  1  0
  8  9  1  0
  9 10  2  0
 10 11  1  0
 11 12  2  0
 12 13  1  0
 14 13  1  1
 14 15  1  0
 15 16  1  0
 16 17  1  0
 18 17  1  0
 18 19  1  1
 19 20  1  0
 18 21  1  0
 14 21  1  0
 12 22  1  0
 22 23  2  0
  9 23  1  0
 23 24  1  0
  6 24  1  0
  2 25  1  0
 25 26  2  0
 26 27  1  0
 27 28  2  0
 28 29  1  0
 28 30  1  0
 30 31  1  0
 30 32  2  0
 25 32  1  0
M  END
>  <pIC50>  (124) 
8.70

>  <chembl_id>  (124) 
CHEMBL3298199

>  <canonical_smiles>  (124) 
C[C@@H](NC(=O)N1CCc2cnc(N[C@H]3CCO[C@@H](CO)C3)nc2C1)c4ccc(Cl)c(Cl)c4

$$$$
CHEMBL3298308
     RDKit          2D

 28 30  0  0  1  0  0  0  0  0999 V2000
   -0.7145   -0.4125    0.0000 C   0  0  0  0  0  0  0  0  0  0  0  0
   -0.7145   -1.2375    0.0000 C   0  0  0  0  0  0  0  0  0  0  0  0
   -1.4289   -1.6500    0.0000 C   0  0  0  0  0  0  0  0  0  0  0  0
   -2.1434   -1.2375    0.0000 O   0  0  0  0  0  0  0  0  0  0  0  0
    0.0000   -1.6500    0.0000 N   0  0  0  0  0  0  0  0  0  0  0  0
    0.7145   -1.2375    0.0000 C   0  0  0  0  0  0  0  0  0  0  0  0
    0.7145   -0.4125    0.0000 N   0  0  0  0  0  0  0  0  0  0  0  0
    1.4289    0.0000    0.0000 C   0  0  0  0  0  0  0  0  0  0  0  0
    2.1434   -0.4125    0.0000 C   0  0  0  0  0  0  0  0  0  0  0  0
    2.8579    0.0000    0.0000 C   0  0  0  0  0  0  0  0  0  0  0  0
    3.5724   -0.4125    0.0000 C   0  0  0  0  0  0  0  0  0  0  0  0
    3.5724   -1.2375    0.0000 N   0  0  0  0  0  0  0  0  0  0  0  0
    2.8579   -1.6500    0.0000 C   0  0  0  0  0  0  0  0  0  0  0  0
    2.1434   -1.2375    0.0000 C   0  0  0  0  0  0  0  0  0  0  0  0
    1.4289   -1.6500    0.0000 N   0  0  0  0  0  0  0  0  0  0  0  0
    4.2868   -1.6500    0.0000 C   0  0  0  0  0  0  0  0  0  0  0  0
    5.0013   -1.2375    0.0000 O   0  0  0  0  0  0  0  0  0  0  0  0
    4.2868   -2.4750    0.0000 N   0  0  0  0  0  0  0  0  0  0  0  0
    5.0013   -2.8875    0.0000 C   0  0  0  0  0  0  0  0  0  0  0  0
    5.0013   -3.7125    0.0000 C   0  0  0  0  0  0  0  0  0  0  0  0
    5.7158   -2.4750    0.0000 C   0  0  0  0  0  0  0  0  0  0  0  0
    5.7158   -1.6500    0.0000 C   0  0  0  0  0  0  0  0  0  0  0  0
    6.4302   -1.2375    0.0000 C   0  0  0  0  0  0  0  0  0  0  0  0
    7.1447   -1.6500    0.0000 C   0  0  0  0  0  0  0  0  0  0  0  0
    7.8592   -1.2375    0.0000 Cl  0  0  0  0  0  0  0  0  0  0  0  0
    7.1447   -2.4750    0.0000 C   0  0  0  0  0  0  0  0  0  0  0  0
    7.8592   -2.8875    0.0000 Cl  0  0  0  0  0  0  0  0  0  0  0  0
    6.4302   -2.8875    0.0000 C   0  0  0  0  0  0  0  0  0  0  0  0
  2  1  1  6
  2  3  1  0
  3  4  1  0
  2  5  1  0
  5  6  1  0
  6  7  2  0
  7  8  1  0
  8  9  2  0
  9 10  1  0
 10 11  1  0
 11 12  1  0
 12 13  1  0
 13 14  1  0
  9 14  1  0
 14 15  2  0
  6 15  1  0
 12 16  1  0
 16 17  2  0
 16 18  1  0
 19 18  1  0
 19 20  1  1
 19 21  1  0
 21 22  2  0
 22 23  1  0
 23 24  2  0
 24 25  1  0
 24 26  1  0
 26 27  1  0
 26 28  2  0
 21 28  1  0
M  END
>  <pIC50>  (125) 
6.98

>  <chembl_id>  (125) 
CHEMBL3298308

>  <canonical_smiles>  (125) 
C[C@@H](CO)Nc1ncc2CCN(Cc2n1)C(=O)N[C@H](C)c3ccc(Cl)c(Cl)c3

$$$$
CHEMBL3298309
     RDKit          2D

 29 31  0  0  1  0  0  0  0  0999 V2000
    2.8579   -4.1250    0.0000 C   0  0  0  0  0  0  0  0  0  0  0  0
    3.5724   -3.7125    0.0000 C   0  0  0  0  0  0  0  0  0  0  0  0
    3.5724   -2.8875    0.0000 C   0  0  0  0  0  0  0  0  0  0  0  0
    4.2868   -2.4750    0.0000 N   0  0  0  0  0  0  0  0  0  0  0  0
    5.0013   -2.8875    0.0000 C   0  0  0  0  0  0  0  0  0  0  0  0
    5.0013   -3.7125    0.0000 O   0  0  0  0  0  0  0  0  0  0  0  0
    5.7158   -2.4750    0.0000 N   0  0  0  0  0  0  0  0  0  0  0  0
    5.7158   -1.6500    0.0000 C   0  0  0  0  0  0  0  0  0  0  0  0
    6.4302   -1.2375    0.0000 C   0  0  0  0  0  0  0  0  0  0  0  0
    7.1447   -1.6500    0.0000 C   0  0  0  0  0  0  0  0  0  0  0  0
    7.8592   -1.2375    0.0000 C   0  0  0  0  0  0  0  0  0  0  0  0
    8.5737   -1.6500    0.0000 N   0  0  0  0  0  0  0  0  0  0  0  0
    8.5737   -2.4750    0.0000 C   0  0  0  0  0  0  0  0  0  0  0  0
    9.2881   -2.8875    0.0000 N   0  0  0  0  0  0  0  0  0  0  0  0
   10.0026   -2.4750    0.0000 C   0  0  0  0  0  0  0  0  0  0  0  0
   10.0026   -1.6500    0.0000 C   0  0  0  0  0  0  0  0  0  0  0  0
   10.7171   -2.8875    0.0000 C   0  0  0  0  0  0  0  0  0  0  0  0
   11.4315   -2.4750    0.0000 O   0  0  0  0  0  0  0  0  0  0  0  0
    7.8592   -2.8875    0.0000 N   0  0  0  0  0  0  0  0  0  0  0  0
    7.1447   -2.4750    0.0000 C   0  0  0  0  0  0  0  0  0  0  0  0
    6.4302   -2.8875    0.0000 C   0  0  0  0  0  0  0  0  0  0  0  0
    2.8579   -2.4750    0.0000 C   0  0  0  0  0  0  0  0  0  0  0  0
    2.1434   -2.8875    0.0000 C   0  0  0  0  0  0  0  0  0  0  0  0
    1.4289   -2.4750    0.0000 C   0  0  0  0  0  0  0  0  0  0  0  0
    1.4289   -1.6500    0.0000 C   0  0  0  0  0  0  0  0  0  0  0  0
    0.7145   -1.2375    0.0000 F   0  0  0  0  0  0  0  0  0  0  0  0
    2.1434   -1.2375    0.0000 C   0  0  0  0  0  0  0  0  0  0  0  0
    2.1434   -0.4125    0.0000 F   0  0  0  0  0  0  0  0  0  0  0  0
    2.8579   -1.6500    0.0000 C   0  0  0  0  0  0  0  0  0  0  0  0
  1  2  1  0
  3  2  1  6
  3  4  1  0
  4  5  1  0
  5  6  2  0
  5  7  1  0
  7  8  1  0
  8  9  1  0
  9 10  1  0
 10 11  2  0
 11 12  1  0
 12 13  2  0
 13 14  1  0
 15 14  1  0
 15 16  1  1
 15 17  1  0
 17 18  1  0
 13 19  1  0
 19 20  2  0
 10 20  1  0
 20 21  1  0
  7 21  1  0
  3 22  1  0
 22 23  2  0
 23 24  1  0
 24 25  2  0
 25 26  1  0
 25 27  1  0
 27 28  1  0
 27 29  2  0
 22 29  1  0
M  END
>  <pIC50>  (126) 
7.89

>  <chembl_id>  (126) 
CHEMBL3298309

>  <canonical_smiles>  (126) 
CC[C@@H](NC(=O)N1CCc2cnc(N[C@@H](C)CO)nc2C1)c3ccc(F)c(F)c3

$$$$
CHEMBL3298310
     RDKit          2D

 29 31  0  0  1  0  0  0  0  0999 V2000
    2.8579   -4.1250    0.0000 C   0  0  0  0  0  0  0  0  0  0  0  0
    3.5724   -3.7125    0.0000 C   0  0  0  0  0  0  0  0  0  0  0  0
    3.5724   -2.8875    0.0000 C   0  0  0  0  0  0  0  0  0  0  0  0
    4.2868   -2.4750    0.0000 N   0  0  0  0  0  0  0  0  0  0  0  0
    5.0013   -2.8875    0.0000 C   0  0  0  0  0  0  0  0  0  0  0  0
    5.0013   -3.7125    0.0000 O   0  0  0  0  0  0  0  0  0  0  0  0
    5.7158   -2.4750    0.0000 N   0  0  0  0  0  0  0  0  0  0  0  0
    5.7158   -1.6500    0.0000 C   0  0  0  0  0  0  0  0  0  0  0  0
    6.4302   -1.2375    0.0000 C   0  0  0  0  0  0  0  0  0  0  0  0
    7.1447   -1.6500    0.0000 C   0  0  0  0  0  0  0  0  0  0  0  0
    7.8592   -1.2375    0.0000 C   0  0  0  0  0  0  0  0  0  0  0  0
    8.5737   -1.6500    0.0000 N   0  0  0  0  0  0  0  0  0  0  0  0
    8.5737   -2.4750    0.0000 C   0  0  0  0  0  0  0  0  0  0  0  0
    9.2881   -2.8875    0.0000 N   0  0  0  0  0  0  0  0  0  0  0  0
   10.0026   -2.4750    0.0000 C   0  0  0  0  0  0  0  0  0  0  0  0
   10.0026   -1.6500    0.0000 C   0  0  0  0  0  0  0  0  0  0  0  0
   10.7171   -2.8875    0.0000 C   0  0  0  0  0  0  0  0  0  0  0  0
   11.4315   -2.4750    0.0000 O   0  0  0  0  0  0  0  0  0  0  0  0
    7.8592   -2.8875    0.0000 N   0  0  0  0  0  0  0  0  0  0  0  0
    7.1447   -2.4750    0.0000 C   0  0  0  0  0  0  0  0  0  0  0  0
    6.4302   -2.8875    0.0000 C   0  0  0  0  0  0  0  0  0  0  0  0
    2.8579   -2.4750    0.0000 C   0  0  0  0  0  0  0  0  0  0  0  0
    2.1434   -2.8875    0.0000 C   0  0  0  0  0  0  0  0  0  0  0  0
    1.4289   -2.4750    0.0000 C   0  0  0  0  0  0  0  0  0  0  0  0
    1.4289   -1.6500    0.0000 C   0  0  0  0  0  0  0  0  0  0  0  0
    0.7145   -1.2375    0.0000 Cl  0  0  0  0  0  0  0  0  0  0  0  0
    2.1434   -1.2375    0.0000 C   0  0  0  0  0  0  0  0  0  0  0  0
    2.1434   -0.4125    0.0000 Cl  0  0  0  0  0  0  0  0  0  0  0  0
    2.8579   -1.6500    0.0000 C   0  0  0  0  0  0  0  0  0  0  0  0
  1  2  1  0
  3  2  1  6
  3  4  1  0
  4  5  1  0
  5  6  2  0
  5  7  1  0
  7  8  1  0
  8  9  1  0
  9 10  1  0
 10 11  2  0
 11 12  1  0
 12 13  2  0
 13 14  1  0
 15 14  1  0
 15 16  1  1
 15 17  1  0
 17 18  1  0
 13 19  1  0
 19 20  2  0
 10 20  1  0
 20 21  1  0
  7 21  1  0
  3 22  1  0
 22 23  2  0
 23 24  1  0
 24 25  2  0
 25 26  1  0
 25 27  1  0
 27 28  1  0
 27 29  2  0
 22 29  1  0
M  END
>  <pIC50>  (127) 
7.92

>  <chembl_id>  (127) 
CHEMBL3298310

>  <canonical_smiles>  (127) 
CC[C@@H](NC(=O)N1CCc2cnc(N[C@@H](C)CO)nc2C1)c3ccc(Cl)c(Cl)c3

$$$$
CHEMBL3298311
     RDKit          2D

 31 33  0  0  1  0  0  0  0  0999 V2000
   -0.7145   -0.4125    0.0000 C   0  0  0  0  0  0  0  0  0  0  0  0
   -0.7145   -1.2375    0.0000 C   0  0  0  0  0  0  0  0  0  0  0  0
   -1.4289   -1.6500    0.0000 C   0  0  0  0  0  0  0  0  0  0  0  0
   -2.1434   -1.2375    0.0000 O   0  0  0  0  0  0  0  0  0  0  0  0
    0.0000   -1.6500    0.0000 N   0  0  0  0  0  0  0  0  0  0  0  0
    0.7145   -1.2375    0.0000 C   0  0  0  0  0  0  0  0  0  0  0  0
    0.7145   -0.4125    0.0000 N   0  0  0  0  0  0  0  0  0  0  0  0
    1.4289    0.0000    0.0000 C   0  0  0  0  0  0  0  0  0  0  0  0
    2.1434   -0.4125    0.0000 C   0  0  0  0  0  0  0  0  0  0  0  0
    2.8579    0.0000    0.0000 C   0  0  0  0  0  0  0  0  0  0  0  0
    3.5724   -0.4125    0.0000 C   0  0  0  0  0  0  0  0  0  0  0  0
    3.5724   -1.2375    0.0000 N   0  0  0  0  0  0  0  0  0  0  0  0
    2.8579   -1.6500    0.0000 C   0  0  0  0  0  0  0  0  0  0  0  0
    2.1434   -1.2375    0.0000 C   0  0  0  0  0  0  0  0  0  0  0  0
    1.4289   -1.6500    0.0000 N   0  0  0  0  0  0  0  0  0  0  0  0
    4.2868   -1.6500    0.0000 C   0  0  0  0  0  0  0  0  0  0  0  0
    5.0013   -1.2375    0.0000 O   0  0  0  0  0  0  0  0  0  0  0  0
    4.2868   -2.4750    0.0000 N   0  0  0  0  0  0  0  0  0  0  0  0
    5.0013   -2.8875    0.0000 C   0  0  0  0  0  0  0  0  0  0  0  0
    5.0013   -3.7125    0.0000 C   0  0  0  0  0  0  0  0  0  0  0  0
    5.7158   -2.4750    0.0000 C   0  0  0  0  0  0  0  0  0  0  0  0
    5.7158   -1.6500    0.0000 C   0  0  0  0  0  0  0  0  0  0  0  0
    6.4302   -1.2375    0.0000 C   0  0  0  0  0  0  0  0  0  0  0  0
    7.1447   -1.6500    0.0000 C   0  0  0  0  0  0  0  0  0  0  0  0
    7.1447   -2.4750    0.0000 C   0  0  0  0  0  0  0  0  0  0  0  0
    7.8592   -2.8875    0.0000 F   0  0  0  0  0  0  0  0  0  0  0  0
    6.4302   -2.8875    0.0000 C   0  0  0  0  0  0  0  0  0  0  0  0
    7.8592   -1.2375    0.0000 C   0  0  0  0  0  0  0  0  0  0  0  0
    8.5737   -0.8250    0.0000 F   0  0  0  0  0  0  0  0  0  0  0  0
    8.2717   -1.9520    0.0000 F   0  0  0  0  0  0  0  0  0  0  0  0
    7.4467   -0.5230    0.0000 F   0  0  0  0  0  0  0  0  0  0  0  0
  2  1  1  6
  2  3  1  0
  3  4  1  0
  2  5  1  0
  5  6  1  0
  6  7  2  0
  7  8  1  0
  8  9  2  0
  9 10  1  0
 10 11  1  0
 11 12  1  0
 12 13  1  0
 13 14  1  0
  9 14  1  0
 14 15  2  0
  6 15  1  0
 12 16  1  0
 16 17  2  0
 16 18  1  0
 19 18  1  0
 19 20  1  1
 19 21  1  0
 21 22  2  0
 22 23  1  0
 23 24  2  0
 24 25  1  0
 25 26  1  0
 25 27  2  0
 21 27  1  0
 24 28  1  0
 28 29  1  0
 28 30  1  0
 28 31  1  0
M  END
>  <pIC50>  (128) 
6.09

>  <chembl_id>  (128) 
CHEMBL3298311

>  <canonical_smiles>  (128) 
C[C@@H](CO)Nc1ncc2CCN(Cc2n1)C(=O)N[C@H](C)c3ccc(c(F)c3)C(F)(F)F

$$$$
CHEMBL3298312
     RDKit          2D

 30 32  0  0  1  0  0  0  0  0999 V2000
    2.8579   -4.1250    0.0000 C   0  0  0  0  0  0  0  0  0  0  0  0
    3.5724   -3.7125    0.0000 C   0  0  0  0  0  0  0  0  0  0  0  0
    3.5724   -2.8875    0.0000 C   0  0  0  0  0  0  0  0  0  0  0  0
    4.2868   -2.4750    0.0000 N   0  0  0  0  0  0  0  0  0  0  0  0
    5.0013   -2.8875    0.0000 C   0  0  0  0  0  0  0  0  0  0  0  0
    5.0013   -3.7125    0.0000 O   0  0  0  0  0  0  0  0  0  0  0  0
    5.7158   -2.4750    0.0000 N   0  0  0  0  0  0  0  0  0  0  0  0
    5.7158   -1.6500    0.0000 C   0  0  0  0  0  0  0  0  0  0  0  0
    6.4302   -1.2375    0.0000 C   0  0  0  0  0  0  0  0  0  0  0  0
    7.1447   -1.6500    0.0000 C   0  0  0  0  0  0  0  0  0  0  0  0
    7.8592   -1.2375    0.0000 C   0  0  0  0  0  0  0  0  0  0  0  0
    8.5737   -1.6500    0.0000 N   0  0  0  0  0  0  0  0  0  0  0  0
    8.5737   -2.4750    0.0000 C   0  0  0  0  0  0  0  0  0  0  0  0
    9.2881   -2.8875    0.0000 N   0  0  0  0  0  0  0  0  0  0  0  0
   10.0026   -2.4750    0.0000 C   0  0  0  0  0  0  0  0  0  0  0  0
   10.0026   -1.6500    0.0000 C   0  0  0  0  0  0  0  0  0  0  0  0
   10.7171   -2.8875    0.0000 C   0  0  0  0  0  0  0  0  0  0  0  0
   11.4315   -2.4750    0.0000 O   0  0  0  0  0  0  0  0  0  0  0  0
    7.8592   -2.8875    0.0000 N   0  0  0  0  0  0  0  0  0  0  0  0
    7.1447   -2.4750    0.0000 C   0  0  0  0  0  0  0  0  0  0  0  0
    6.4302   -2.8875    0.0000 C   0  0  0  0  0  0  0  0  0  0  0  0
    2.8579   -2.4750    0.0000 C   0  0  0  0  0  0  0  0  0  0  0  0
    2.1434   -2.8875    0.0000 C   0  0  0  0  0  0  0  0  0  0  0  0
    1.4289   -2.4750    0.0000 C   0  0  0  0  0  0  0  0  0  0  0  0
    1.4289   -1.6500    0.0000 C   0  0  0  0  0  0  0  0  0  0  0  0
    0.7145   -1.2375    0.0000 O   0  0  0  0  0  0  0  0  0  0  0  0
    0.0000   -1.6500    0.0000 C   0  0  0  0  0  0  0  0  0  0  0  0
    2.1434   -1.2375    0.0000 C   0  0  0  0  0  0  0  0  0  0  0  0
    2.1434   -0.4125    0.0000 Cl  0  0  0  0  0  0  0  0  0  0  0  0
    2.8579   -1.6500    0.0000 C   0  0  0  0  0  0  0  0  0  0  0  0
  1  2  1  0
  3  2  1  6
  3  4  1  0
  4  5  1  0
  5  6  2  0
  5  7  1  0
  7  8  1  0
  8  9  1  0
  9 10  1  0
 10 11  2  0
 11 12  1  0
 12 13  2  0
 13 14  1  0
 15 14  1  0
 15 16  1  1
 15 17  1  0
 17 18  1  0
 13 19  1  0
 19 20  2  0
 10 20  1  0
 20 21  1  0
  7 21  1  0
  3 22  1  0
 22 23  2  0
 23 24  1  0
 24 25  2  0
 25 26  1  0
 26 27  1  0
 25 28  1  0
 28 29  1  0
 28 30  2  0
 22 30  1  0
M  END
>  <pIC50>  (129) 
7.15

>  <chembl_id>  (129) 
CHEMBL3298312

>  <canonical_smiles>  (129) 
CC[C@@H](NC(=O)N1CCc2cnc(N[C@@H](C)CO)nc2C1)c3ccc(OC)c(Cl)c3

$$$$
CHEMBL3298414
     RDKit          2D

 31 34  0  0  1  0  0  0  0  0999 V2000
   -2.1434   -2.8875    0.0000 O   0  0  0  0  0  0  0  0  0  0  0  0
   -1.4289   -2.4750    0.0000 C   0  0  0  0  0  0  0  0  0  0  0  0
   -1.4289   -1.6500    0.0000 C   0  0  0  0  0  0  0  0  0  0  0  0
   -0.7145   -1.2375    0.0000 N   0  0  0  0  0  0  0  0  0  0  0  0
    0.0000   -1.6500    0.0000 C   0  0  0  0  0  0  0  0  0  0  0  0
    0.0000   -2.4750    0.0000 O   0  0  0  0  0  0  0  0  0  0  0  0
    0.7145   -1.2375    0.0000 N   0  0  0  0  0  0  0  0  0  0  0  0
    0.7145   -0.4125    0.0000 C   0  0  0  0  0  0  0  0  0  0  0  0
    1.4289    0.0000    0.0000 C   0  0  0  0  0  0  0  0  0  0  0  0
    2.1434   -0.4125    0.0000 C   0  0  0  0  0  0  0  0  0  0  0  0
    2.8579    0.0000    0.0000 C   0  0  0  0  0  0  0  0  0  0  0  0
    3.5724   -0.4125    0.0000 N   0  0  0  0  0  0  0  0  0  0  0  0
    3.5724   -1.2375    0.0000 C   0  0  0  0  0  0  0  0  0  0  0  0
    4.2868   -1.6500    0.0000 N   0  0  0  0  0  0  0  0  0  0  0  0
    5.0013   -1.2375    0.0000 C   0  0  0  0  0  0  0  0  0  0  0  0
    5.0013   -0.4125    0.0000 C   0  0  0  0  0  0  0  0  0  0  0  0
    5.7158    0.0000    0.0000 C   0  0  0  0  0  0  0  0  0  0  0  0
    6.4302   -0.4125    0.0000 O   0  0  0  0  0  0  0  0  0  0  0  0
    6.4302   -1.2375    0.0000 C   0  0  0  0  0  0  0  0  0  0  0  0
    5.7158   -1.6500    0.0000 C   0  0  0  0  0  0  0  0  0  0  0  0
    2.8579   -1.6500    0.0000 N   0  0  0  0  0  0  0  0  0  0  0  0
    2.1434   -1.2375    0.0000 C   0  0  0  0  0  0  0  0  0  0  0  0
    1.4289   -1.6500    0.0000 C   0  0  0  0  0  0  0  0  0  0  0  0
   -2.1434   -1.2375    0.0000 C   0  0  0  0  0  0  0  0  0  0  0  0
   -2.8579   -1.6500    0.0000 C   0  0  0  0  0  0  0  0  0  0  0  0
   -3.5724   -1.2375    0.0000 C   0  0  0  0  0  0  0  0  0  0  0  0
   -3.5724   -0.4125    0.0000 C   0  0  0  0  0  0  0  0  0  0  0  0
   -4.2868    0.0000    0.0000 F   0  0  0  0  0  0  0  0  0  0  0  0
   -2.8579    0.0000    0.0000 C   0  0  0  0  0  0  0  0  0  0  0  0
   -2.8579    0.8250    0.0000 Cl  0  0  0  0  0  0  0  0  0  0  0  0
   -2.1434   -0.4125    0.0000 C   0  0  0  0  0  0  0  0  0  0  0  0
  1  2  1  0
  3  2  1  6
  3  4  1  0
  4  5  1  0
  5  6  2  0
  5  7  1  0
  7  8  1  0
  8  9  1  0
  9 10  1  0
 10 11  2  0
 11 12  1  0
 12 13  2  0
 13 14  1  0
 14 15  1  0
 15 16  1  0
 16 17  1  0
 17 18  1  0
 18 19  1  0
 19 20  1  0
 15 20  1  0
 13 21  1  0
 21 22  2  0
 10 22  1  0
 22 23  1  0
  7 23  1  0
  3 24  1  0
 24 25  2  0
 25 26  1  0
 26 27  2  0
 27 28  1  0
 27 29  1  0
 29 30  1  0
 29 31  2  0
 24 31  1  0
M  END
>  <pIC50>  (130) 
7.80

>  <chembl_id>  (130) 
CHEMBL3298414

>  <canonical_smiles>  (130) 
OC[C@@H](NC(=O)N1CCc2cnc(NC3CCOCC3)nc2C1)c4ccc(F)c(Cl)c4

$$$$
CHEMBL3298418
     RDKit          2D

 31 34  0  0  1  0  0  0  0  0999 V2000
   -1.4289   -2.4750    0.0000 C   0  0  0  0  0  0  0  0  0  0  0  0
   -1.4289   -1.6500    0.0000 C   0  0  0  0  0  0  0  0  0  0  0  0
   -0.7145   -1.2375    0.0000 N   0  0  0  0  0  0  0  0  0  0  0  0
    0.0000   -1.6500    0.0000 C   0  0  0  0  0  0  0  0  0  0  0  0
    0.0000   -2.4750    0.0000 O   0  0  0  0  0  0  0  0  0  0  0  0
    0.7145   -1.2375    0.0000 N   0  0  0  0  0  0  0  0  0  0  0  0
    0.7145   -0.4125    0.0000 C   0  0  0  0  0  0  0  0  0  0  0  0
    1.4289    0.0000    0.0000 C   0  0  0  0  0  0  0  0  0  0  0  0
    2.1434   -0.4125    0.0000 C   0  0  0  0  0  0  0  0  0  0  0  0
    2.8579    0.0000    0.0000 C   0  0  0  0  0  0  0  0  0  0  0  0
    3.5724   -0.4125    0.0000 N   0  0  0  0  0  0  0  0  0  0  0  0
    3.5724   -1.2375    0.0000 C   0  0  0  0  0  0  0  0  0  0  0  0
    4.2868   -1.6500    0.0000 N   0  0  0  0  0  0  0  0  0  0  0  0
    5.0013   -1.2375    0.0000 C   0  0  0  0  0  0  0  0  0  0  0  0
    5.0013   -0.4125    0.0000 C   0  0  0  0  0  0  0  0  0  0  0  0
    5.7158    0.0000    0.0000 C   0  0  0  0  0  0  0  0  0  0  0  0
    6.4302   -0.4125    0.0000 N   0  0  0  0  0  0  0  0  0  0  0  0
    6.4302   -1.2375    0.0000 C   0  0  0  0  0  0  0  0  0  0  0  0
    7.1447   -1.6500    0.0000 C   0  0  0  0  0  0  0  0  0  0  0  0
    5.7158   -1.6500    0.0000 C   0  0  0  0  0  0  0  0  0  0  0  0
    2.8579   -1.6500    0.0000 N   0  0  0  0  0  0  0  0  0  0  0  0
    2.1434   -1.2375    0.0000 C   0  0  0  0  0  0  0  0  0  0  0  0
    1.4289   -1.6500    0.0000 C   0  0  0  0  0  0  0  0  0  0  0  0
   -2.1434   -1.2375    0.0000 C   0  0  0  0  0  0  0  0  0  0  0  0
   -2.8579   -1.6500    0.0000 C   0  0  0  0  0  0  0  0  0  0  0  0
   -3.5724   -1.2375    0.0000 C   0  0  0  0  0  0  0  0  0  0  0  0
   -3.5724   -0.4125    0.0000 C   0  0  0  0  0  0  0  0  0  0  0  0
   -4.2868    0.0000    0.0000 Cl  0  0  0  0  0  0  0  0  0  0  0  0
   -2.8579    0.0000    0.0000 C   0  0  0  0  0  0  0  0  0  0  0  0
   -2.8579    0.8250    0.0000 Cl  0  0  0  0  0  0  0  0  0  0  0  0
   -2.1434   -0.4125    0.0000 C   0  0  0  0  0  0  0  0  0  0  0  0
  2  1  1  6
  2  3  1  0
  3  4  1  0
  4  5  2  0
  4  6  1  0
  6  7  1  0
  7  8  1  0
  8  9  1  0
  9 10  2  0
 10 11  1  0
 11 12  2  0
 12 13  1  0
 13 14  1  0
 14 15  2  0
 15 16  1  0
 16 17  2  0
 17 18  1  0
 18 19  1  0
 18 20  2  0
 14 20  1  0
 12 21  1  0
 21 22  2  0
  9 22  1  0
 22 23  1  0
  6 23  1  0
  2 24  1  0
 24 25  2  0
 25 26  1  0
 26 27  2  0
 27 28  1  0
 27 29  1  0
 29 30  1  0
 29 31  2  0
 24 31  1  0
M  END
>  <pIC50>  (131) 
8.05

>  <chembl_id>  (131) 
CHEMBL3298418

>  <canonical_smiles>  (131) 
C[C@@H](NC(=O)N1CCc2cnc(Nc3ccnc(C)c3)nc2C1)c4ccc(Cl)c(Cl)c4

$$$$
CHEMBL3298678
     RDKit          2D

 31 34  0  0  1  0  0  0  0  0999 V2000
   -2.1434   -2.8875    0.0000 O   0  0  0  0  0  0  0  0  0  0  0  0
   -1.4289   -2.4750    0.0000 C   0  0  0  0  0  0  0  0  0  0  0  0
   -1.4289   -1.6500    0.0000 C   0  0  0  0  0  0  0  0  0  0  0  0
   -0.7145   -1.2375    0.0000 N   0  0  0  0  0  0  0  0  0  0  0  0
    0.0000   -1.6500    0.0000 C   0  0  0  0  0  0  0  0  0  0  0  0
    0.0000   -2.4750    0.0000 O   0  0  0  0  0  0  0  0  0  0  0  0
    0.7145   -1.2375    0.0000 N   0  0  0  0  0  0  0  0  0  0  0  0
    0.7145   -0.4125    0.0000 C   0  0  0  0  0  0  0  0  0  0  0  0
    1.4289    0.0000    0.0000 C   0  0  0  0  0  0  0  0  0  0  0  0
    2.1434   -0.4125    0.0000 C   0  0  0  0  0  0  0  0  0  0  0  0
    2.8579    0.0000    0.0000 C   0  0  0  0  0  0  0  0  0  0  0  0
    3.5724   -0.4125    0.0000 N   0  0  0  0  0  0  0  0  0  0  0  0
    3.5724   -1.2375    0.0000 C   0  0  0  0  0  0  0  0  0  0  0  0
    4.2868   -1.6500    0.0000 N   0  0  0  0  0  0  0  0  0  0  0  0
    5.0013   -1.2375    0.0000 C   0  0  0  0  0  0  0  0  0  0  0  0
    5.0013   -0.4125    0.0000 C   0  0  0  0  0  0  0  0  0  0  0  0
    5.7158    0.0000    0.0000 C   0  0  0  0  0  0  0  0  0  0  0  0
    6.4302   -0.4125    0.0000 O   0  0  0  0  0  0  0  0  0  0  0  0
    6.4302   -1.2375    0.0000 C   0  0  0  0  0  0  0  0  0  0  0  0
    5.7158   -1.6500    0.0000 C   0  0  0  0  0  0  0  0  0  0  0  0
    2.8579   -1.6500    0.0000 N   0  0  0  0  0  0  0  0  0  0  0  0
    2.1434   -1.2375    0.0000 C   0  0  0  0  0  0  0  0  0  0  0  0
    1.4289   -1.6500    0.0000 C   0  0  0  0  0  0  0  0  0  0  0  0
   -2.1434   -1.2375    0.0000 C   0  0  0  0  0  0  0  0  0  0  0  0
   -2.8579   -1.6500    0.0000 C   0  0  0  0  0  0  0  0  0  0  0  0
   -3.5724   -1.2375    0.0000 C   0  0  0  0  0  0  0  0  0  0  0  0
   -3.5724   -0.4125    0.0000 C   0  0  0  0  0  0  0  0  0  0  0  0
   -4.2868    0.0000    0.0000 Cl  0  0  0  0  0  0  0  0  0  0  0  0
   -2.8579    0.0000    0.0000 C   0  0  0  0  0  0  0  0  0  0  0  0
   -2.8579    0.8250    0.0000 F   0  0  0  0  0  0  0  0  0  0  0  0
   -2.1434   -0.4125    0.0000 C   0  0  0  0  0  0  0  0  0  0  0  0
  1  2  1  0
  3  2  1  6
  3  4  1  0
  4  5  1  0
  5  6  2  0
  5  7  1  0
  7  8  1  0
  8  9  1  0
  9 10  1  0
 10 11  2  0
 11 12  1  0
 12 13  2  0
 13 14  1  0
 14 15  1  0
 15 16  1  0
 16 17  1  0
 17 18  1  0
 18 19  1  0
 19 20  1  0
 15 20  1  0
 13 21  1  0
 21 22  2  0
 10 22  1  0
 22 23  1  0
  7 23  1  0
  3 24  1  0
 24 25  2  0
 25 26  1  0
 26 27  2  0
 27 28  1  0
 27 29  1  0
 29 30  1  0
 29 31  2  0
 24 31  1  0
M  END
>  <pIC50>  (132) 
8.00

>  <chembl_id>  (132) 
CHEMBL3298678

>  <canonical_smiles>  (132) 
OC[C@@H](NC(=O)N1CCc2cnc(NC3CCOCC3)nc2C1)c4ccc(Cl)c(F)c4

$$$$
CHEMBL3298823
     RDKit          2D

 27 30  0  0  0  0  0  0  0  0999 V2000
    3.2789    6.1875    0.0000 F   0  0  0  0  0  0  0  0  0  0  0  0
    3.9934    5.7750    0.0000 C   0  0  0  0  0  0  0  0  0  0  0  0
    4.7079    6.1875    0.0000 C   0  0  0  0  0  0  0  0  0  0  0  0
    5.4223    5.7750    0.0000 C   0  0  0  0  0  0  0  0  0  0  0  0
    5.4223    4.9500    0.0000 C   0  0  0  0  0  0  0  0  0  0  0  0
    4.7079    4.5375    0.0000 C   0  0  0  0  0  0  0  0  0  0  0  0
    4.7079    3.7125    0.0000 C   0  0  0  0  0  0  0  0  0  0  0  0
    3.9934    3.3000    0.0000 N   0  0  0  0  0  0  0  0  0  0  0  0
    3.9934    2.4750    0.0000 C   0  0  0  0  0  0  0  0  0  0  0  0
    4.7079    2.0625    0.0000 O   0  0  0  0  0  0  0  0  0  0  0  0
    3.2789    2.0625    0.0000 C   0  0  0  0  0  0  0  0  0  0  0  0
    3.2789    1.2375    0.0000 C   0  0  0  0  0  0  0  0  0  0  0  0
    3.9934    0.8250    0.0000 C   0  0  0  0  0  0  0  0  0  0  0  0
    3.9934    0.0000    0.0000 N   0  0  0  0  0  0  0  0  0  0  0  0
    3.2789   -0.4125    0.0000 C   0  0  0  0  0  0  0  0  0  0  0  0
    3.2789   -1.2375    0.0000 O   0  0  0  0  0  0  0  0  0  0  0  0
    2.5645    0.0000    0.0000 C   0  0  0  0  0  0  0  0  0  0  0  0
    1.7798   -0.2549    0.0000 C   0  0  0  0  0  0  0  0  0  0  0  0
    1.2949    0.4125    0.0000 C   0  0  0  0  0  0  0  0  0  0  0  0
    1.7798    1.0799    0.0000 C   0  0  0  0  0  0  0  0  0  0  0  0
    2.5645    0.8250    0.0000 N   0  0  0  0  0  0  0  0  0  0  0  0
    0.4699    0.4125    0.0000 C   0  0  0  0  0  0  0  0  0  0  0  0
   -0.0150   -0.2549    0.0000 C   0  0  0  0  0  0  0  0  0  0  0  0
   -0.7996    0.0000    0.0000 N   0  0  0  0  0  0  0  0  0  0  0  0
   -0.7996    0.8250    0.0000 N   0  0  0  0  0  0  0  0  0  0  0  0
   -0.0150    1.0799    0.0000 C   0  0  0  0  0  0  0  0  0  0  0  0
    3.9934    4.9500    0.0000 C   0  0  0  0  0  0  0  0  0  0  0  0
  1  2  1  0
  2  3  2  0
  3  4  1  0
  4  5  2  0
  5  6  1  0
  6  7  1  0
  7  8  1  0
  8  9  1  0
  9 10  2  0
  9 11  1  0
 11 12  1  0
 12 13  1  0
 13 14  1  0
 14 15  1  0
 15 16  2  0
 15 17  1  0
 17 18  2  0
 18 19  1  0
 19 20  2  0
 20 21  1  0
 12 21  1  0
 17 21  1  0
 19 22  1  0
 22 23  1  0
 23 24  2  0
 24 25  1  0
 25 26  1  0
 22 26  2  0
  6 27  2  0
  2 27  1  0
M  END
>  <pIC50>  (133) 
7.22

>  <chembl_id>  (133) 
CHEMBL3298823

>  <canonical_smiles>  (133) 
Fc1cccc(CNC(=O)CC2CNC(=O)c3cc(cn23)c4cn[nH]c4)c1

$$$$
CHEMBL3298982
     RDKit          2D

 31 34  0  0  1  0  0  0  0  0999 V2000
   -2.1434   -2.8875    0.0000 O   0  0  0  0  0  0  0  0  0  0  0  0
   -1.4289   -2.4750    0.0000 C   0  0  0  0  0  0  0  0  0  0  0  0
   -1.4289   -1.6500    0.0000 C   0  0  0  0  0  0  0  0  0  0  0  0
   -0.7145   -1.2375    0.0000 N   0  0  0  0  0  0  0  0  0  0  0  0
    0.0000   -1.6500    0.0000 C   0  0  0  0  0  0  0  0  0  0  0  0
    0.0000   -2.4750    0.0000 O   0  0  0  0  0  0  0  0  0  0  0  0
    0.7145   -1.2375    0.0000 N   0  0  0  0  0  0  0  0  0  0  0  0
    0.7145   -0.4125    0.0000 C   0  0  0  0  0  0  0  0  0  0  0  0
    1.4289    0.0000    0.0000 C   0  0  0  0  0  0  0  0  0  0  0  0
    2.1434   -0.4125    0.0000 C   0  0  0  0  0  0  0  0  0  0  0  0
    2.8579    0.0000    0.0000 C   0  0  0  0  0  0  0  0  0  0  0  0
    3.5724   -0.4125    0.0000 N   0  0  0  0  0  0  0  0  0  0  0  0
    3.5724   -1.2375    0.0000 C   0  0  0  0  0  0  0  0  0  0  0  0
    4.2868   -1.6500    0.0000 N   0  0  0  0  0  0  0  0  0  0  0  0
    5.0013   -1.2375    0.0000 C   0  0  0  0  0  0  0  0  0  0  0  0
    5.0013   -0.4125    0.0000 C   0  0  0  0  0  0  0  0  0  0  0  0
    5.7158    0.0000    0.0000 C   0  0  0  0  0  0  0  0  0  0  0  0
    6.4302   -0.4125    0.0000 O   0  0  0  0  0  0  0  0  0  0  0  0
    6.4302   -1.2375    0.0000 C   0  0  0  0  0  0  0  0  0  0  0  0
    5.7158   -1.6500    0.0000 C   0  0  0  0  0  0  0  0  0  0  0  0
    2.8579   -1.6500    0.0000 N   0  0  0  0  0  0  0  0  0  0  0  0
    2.1434   -1.2375    0.0000 C   0  0  0  0  0  0  0  0  0  0  0  0
    1.4289   -1.6500    0.0000 C   0  0  0  0  0  0  0  0  0  0  0  0
   -2.1434   -1.2375    0.0000 C   0  0  0  0  0  0  0  0  0  0  0  0
   -2.8579   -1.6500    0.0000 C   0  0  0  0  0  0  0  0  0  0  0  0
   -3.5724   -1.2375    0.0000 C   0  0  0  0  0  0  0  0  0  0  0  0
   -3.5724   -0.4125    0.0000 C   0  0  0  0  0  0  0  0  0  0  0  0
   -4.2868    0.0000    0.0000 Cl  0  0  0  0  0  0  0  0  0  0  0  0
   -2.8579    0.0000    0.0000 C   0  0  0  0  0  0  0  0  0  0  0  0
   -2.8579    0.8250    0.0000 Cl  0  0  0  0  0  0  0  0  0  0  0  0
   -2.1434   -0.4125    0.0000 C   0  0  0  0  0  0  0  0  0  0  0  0
  1  2  1  0
  3  2  1  6
  3  4  1  0
  4  5  1  0
  5  6  2  0
  5  7  1  0
  7  8  1  0
  8  9  1  0
  9 10  1  0
 10 11  2  0
 11 12  1  0
 12 13  2  0
 13 14  1  0
 14 15  1  0
 15 16  1  0
 16 17  1  0
 17 18  1  0
 18 19  1  0
 19 20  1  0
 15 20  1  0
 13 21  1  0
 21 22  2  0
 10 22  1  0
 22 23  1  0
  7 23  1  0
  3 24  1  0
 24 25  2  0
 25 26  1  0
 26 27  2  0
 27 28  1  0
 27 29  1  0
 29 30  1  0
 29 31  2  0
 24 31  1  0
M  END
>  <pIC50>  (134) 
7.96

>  <chembl_id>  (134) 
CHEMBL3298982

>  <canonical_smiles>  (134) 
OC[C@@H](NC(=O)N1CCc2cnc(NC3CCOCC3)nc2C1)c4ccc(Cl)c(Cl)c4

$$$$
CHEMBL3298983
     RDKit          2D

 31 35  0  0  1  0  0  0  0  0999 V2000
    6.3569   -5.2354    0.0000 C   0  0  0  0  0  0  0  0  0  0  0  0
    5.6424   -4.8229    0.0000 C   0  0  0  0  0  0  0  0  0  0  0  0
    5.6424   -3.9979    0.0000 N   0  0  0  0  0  0  0  0  0  0  0  0
    6.3569   -3.5854    0.0000 C   0  0  0  0  0  0  0  0  0  0  0  0
    7.0714   -3.9979    0.0000 O   0  0  0  0  0  0  0  0  0  0  0  0
    6.3569   -2.7604    0.0000 N   0  0  0  0  0  0  0  0  0  0  0  0
    5.6424   -2.3479    0.0000 C   0  0  0  0  0  0  0  0  0  0  0  0
    5.6424   -1.5229    0.0000 C   0  0  0  0  0  0  0  0  0  0  0  0
    6.3569   -1.1104    0.0000 C   0  0  0  0  0  0  0  0  0  0  0  0
    6.3569   -0.2854    0.0000 C   0  0  0  0  0  0  0  0  0  0  0  0
    7.0714    0.1271    0.0000 N   0  0  0  0  0  0  0  0  0  0  0  0
    7.7858   -0.2854    0.0000 C   0  0  0  0  0  0  0  0  0  0  0  0
    8.5003    0.1271    0.0000 N   0  0  0  0  0  0  0  0  0  0  0  0
    8.5003    0.9521    0.0000 C   0  0  0  0  0  0  0  0  0  0  0  0
    7.7858    1.3646    0.0000 C   0  0  0  0  0  0  0  0  0  0  0  0
    7.7858    2.1896    0.0000 C   0  0  0  0  0  0  0  0  0  0  0  0
    8.5003    2.6021    0.0000 O   0  0  0  0  0  0  0  0  0  0  0  0
    9.2148    2.1896    0.0000 C   0  0  0  0  0  0  0  0  0  0  0  0
    9.2148    1.3646    0.0000 C   0  0  0  0  0  0  0  0  0  0  0  0
    7.7858   -1.1104    0.0000 N   0  0  0  0  0  0  0  0  0  0  0  0
    7.0714   -1.5229    0.0000 C   0  0  0  0  0  0  0  0  0  0  0  0
    7.0714   -2.3479    0.0000 C   0  0  0  0  0  0  0  0  0  0  0  0
    4.9279   -5.2354    0.0000 C   0  0  0  0  0  0  0  0  0  0  0  0
    4.9279   -6.0604    0.0000 C   0  0  0  0  0  0  0  0  0  0  0  0
    4.2135   -6.4729    0.0000 C   0  0  0  0  0  0  0  0  0  0  0  0
    3.4990   -6.0604    0.0000 C   0  0  0  0  0  0  0  0  0  0  0  0
    2.7144   -6.3154    0.0000 C   0  0  0  0  0  0  0  0  0  0  0  0
    2.2295   -5.6479    0.0000 C   0  0  0  0  0  0  0  0  0  0  0  0
    2.7144   -4.9805    0.0000 N   0  0  0  0  0  0  0  0  0  0  0  0
    3.4990   -5.2354    0.0000 C   0  0  0  0  0  0  0  0  0  0  0  0
    4.2135   -4.8229    0.0000 C   0  0  0  0  0  0  0  0  0  0  0  0
  2  1  1  6
  2  3  1  0
  3  4  1  0
  4  5  2  0
  4  6  1  0
  6  7  1  0
  7  8  1  0
  8  9  1  0
  9 10  2  0
 10 11  1  0
 11 12  2  0
 12 13  1  0
 13 14  1  0
 14 15  1  0
 15 16  1  0
 16 17  1  0
 17 18  1  0
 18 19  1  0
 14 19  1  0
 12 20  1  0
 20 21  2  0
  9 21  1  0
 21 22  1  0
  6 22  1  0
  2 23  1  0
 23 24  2  0
 24 25  1  0
 25 26  2  0
 26 27  1  0
 27 28  2  0
 28 29  1  0
 29 30  1  0
 26 30  1  0
 30 31  2  0
 23 31  1  0
M  END
>  <pIC50>  (135) 
7.16

>  <chembl_id>  (135) 
CHEMBL3298983

>  <canonical_smiles>  (135) 
C[C@@H](NC(=O)N1CCc2cnc(NC3CCOCC3)nc2C1)c4ccc5cc[nH]c5c4

$$$$
CHEMBL3298984
     RDKit          2D

 30 33  0  0  1  0  0  0  0  0999 V2000
   -1.4289   -2.4750    0.0000 C   0  0  0  0  0  0  0  0  0  0  0  0
   -1.4289   -1.6500    0.0000 C   0  0  0  0  0  0  0  0  0  0  0  0
   -0.7145   -1.2375    0.0000 N   0  0  0  0  0  0  0  0  0  0  0  0
    0.0000   -1.6500    0.0000 C   0  0  0  0  0  0  0  0  0  0  0  0
    0.0000   -2.4750    0.0000 O   0  0  0  0  0  0  0  0  0  0  0  0
    0.7145   -1.2375    0.0000 N   0  0  0  0  0  0  0  0  0  0  0  0
    0.7145   -0.4125    0.0000 C   0  0  0  0  0  0  0  0  0  0  0  0
    1.4289    0.0000    0.0000 C   0  0  0  0  0  0  0  0  0  0  0  0
    2.1434   -0.4125    0.0000 C   0  0  0  0  0  0  0  0  0  0  0  0
    2.8579    0.0000    0.0000 C   0  0  0  0  0  0  0  0  0  0  0  0
    3.5724   -0.4125    0.0000 N   0  0  0  0  0  0  0  0  0  0  0  0
    3.5724   -1.2375    0.0000 C   0  0  0  0  0  0  0  0  0  0  0  0
    4.2868   -1.6500    0.0000 N   0  0  0  0  0  0  0  0  0  0  0  0
    5.0013   -1.2375    0.0000 C   0  0  0  0  0  0  0  0  0  0  0  0
    5.0013   -0.4125    0.0000 C   0  0  0  0  0  0  0  0  0  0  0  0
    5.7158    0.0000    0.0000 C   0  0  0  0  0  0  0  0  0  0  0  0
    6.4302   -0.4125    0.0000 O   0  0  0  0  0  0  0  0  0  0  0  0
    6.4302   -1.2375    0.0000 C   0  0  0  0  0  0  0  0  0  0  0  0
    5.7158   -1.6500    0.0000 C   0  0  0  0  0  0  0  0  0  0  0  0
    2.8579   -1.6500    0.0000 N   0  0  0  0  0  0  0  0  0  0  0  0
    2.1434   -1.2375    0.0000 C   0  0  0  0  0  0  0  0  0  0  0  0
    1.4289   -1.6500    0.0000 C   0  0  0  0  0  0  0  0  0  0  0  0
   -2.1434   -1.2375    0.0000 C   0  0  0  0  0  0  0  0  0  0  0  0
   -2.8579   -1.6500    0.0000 C   0  0  0  0  0  0  0  0  0  0  0  0
   -3.5724   -1.2375    0.0000 C   0  0  0  0  0  0  0  0  0  0  0  0
   -3.5724   -0.4125    0.0000 C   0  0  0  0  0  0  0  0  0  0  0  0
   -4.2868    0.0000    0.0000 Cl  0  0  0  0  0  0  0  0  0  0  0  0
   -2.8579    0.0000    0.0000 C   0  0  0  0  0  0  0  0  0  0  0  0
   -2.8579    0.8250    0.0000 F   0  0  0  0  0  0  0  0  0  0  0  0
   -2.1434   -0.4125    0.0000 C   0  0  0  0  0  0  0  0  0  0  0  0
  2  1  1  6
  2  3  1  0
  3  4  1  0
  4  5  2  0
  4  6  1  0
  6  7  1  0
  7  8  1  0
  8  9  1  0
  9 10  2  0
 10 11  1  0
 11 12  2  0
 12 13  1  0
 13 14  1  0
 14 15  1  0
 15 16  1  0
 16 17  1  0
 17 18  1  0
 18 19  1  0
 14 19  1  0
 12 20  1  0
 20 21  2  0
  9 21  1  0
 21 22  1  0
  6 22  1  0
  2 23  1  0
 23 24  2  0
 24 25  1  0
 25 26  2  0
 26 27  1  0
 26 28  1  0
 28 29  1  0
 28 30  2  0
 23 30  1  0
M  END
>  <pIC50>  (136) 
7.89

>  <chembl_id>  (136) 
CHEMBL3298984

>  <canonical_smiles>  (136) 
C[C@@H](NC(=O)N1CCc2cnc(NC3CCOCC3)nc2C1)c4ccc(Cl)c(F)c4

$$$$
CHEMBL3298985
     RDKit          2D

 32 35  0  0  1  0  0  0  0  0999 V2000
   -2.1434   -2.8875    0.0000 C   0  0  0  0  0  0  0  0  0  0  0  0
   -1.4289   -2.4750    0.0000 C   0  0  0  0  0  0  0  0  0  0  0  0
   -1.4289   -1.6500    0.0000 C   0  0  0  0  0  0  0  0  0  0  0  0
   -0.7145   -1.2375    0.0000 N   0  0  0  0  0  0  0  0  0  0  0  0
    0.0000   -1.6500    0.0000 C   0  0  0  0  0  0  0  0  0  0  0  0
    0.0000   -2.4750    0.0000 O   0  0  0  0  0  0  0  0  0  0  0  0
    0.7145   -1.2375    0.0000 N   0  0  0  0  0  0  0  0  0  0  0  0
    0.7145   -0.4125    0.0000 C   0  0  0  0  0  0  0  0  0  0  0  0
    1.4289    0.0000    0.0000 C   0  0  0  0  0  0  0  0  0  0  0  0
    2.1434   -0.4125    0.0000 C   0  0  0  0  0  0  0  0  0  0  0  0
    2.8579    0.0000    0.0000 C   0  0  0  0  0  0  0  0  0  0  0  0
    3.5724   -0.4125    0.0000 N   0  0  0  0  0  0  0  0  0  0  0  0
    3.5724   -1.2375    0.0000 C   0  0  0  0  0  0  0  0  0  0  0  0
    4.2868   -1.6500    0.0000 N   0  0  0  0  0  0  0  0  0  0  0  0
    5.0013   -1.2375    0.0000 C   0  0  0  0  0  0  0  0  0  0  0  0
    5.0013   -0.4125    0.0000 C   0  0  0  0  0  0  0  0  0  0  0  0
    5.7158    0.0000    0.0000 C   0  0  0  0  0  0  0  0  0  0  0  0
    6.4302   -0.4125    0.0000 O   0  0  0  0  0  0  0  0  0  0  0  0
    6.4302   -1.2375    0.0000 C   0  0  0  0  0  0  0  0  0  0  0  0
    5.7158   -1.6500    0.0000 C   0  0  0  0  0  0  0  0  0  0  0  0
    2.8579   -1.6500    0.0000 N   0  0  0  0  0  0  0  0  0  0  0  0
    2.1434   -1.2375    0.0000 C   0  0  0  0  0  0  0  0  0  0  0  0
    1.4289   -1.6500    0.0000 C   0  0  0  0  0  0  0  0  0  0  0  0
   -2.1434   -1.2375    0.0000 C   0  0  0  0  0  0  0  0  0  0  0  0
   -2.8579   -1.6500    0.0000 C   0  0  0  0  0  0  0  0  0  0  0  0
   -3.5724   -1.2375    0.0000 C   0  0  0  0  0  0  0  0  0  0  0  0
   -3.5724   -0.4125    0.0000 C   0  0  0  0  0  0  0  0  0  0  0  0
   -4.2868    0.0000    0.0000 C   0  0  0  0  0  0  0  0  0  0  0  0
   -5.0013    0.4125    0.0000 N   0  0  0  0  0  0  0  0  0  0  0  0
   -2.8579    0.0000    0.0000 C   0  0  0  0  0  0  0  0  0  0  0  0
   -2.8579    0.8250    0.0000 Cl  0  0  0  0  0  0  0  0  0  0  0  0
   -2.1434   -0.4125    0.0000 C   0  0  0  0  0  0  0  0  0  0  0  0
  1  2  1  0
  3  2  1  6
  3  4  1  0
  4  5  1  0
  5  6  2  0
  5  7  1  0
  7  8  1  0
  8  9  1  0
  9 10  1  0
 10 11  2  0
 11 12  1  0
 12 13  2  0
 13 14  1  0
 14 15  1  0
 15 16  1  0
 16 17  1  0
 17 18  1  0
 18 19  1  0
 19 20  1  0
 15 20  1  0
 13 21  1  0
 21 22  2  0
 10 22  1  0
 22 23  1  0
  7 23  1  0
  3 24  1  0
 24 25  2  0
 25 26  1  0
 26 27  2  0
 27 28  1  0
 28 29  3  0
 27 30  1  0
 30 31  1  0
 30 32  2  0
 24 32  1  0
M  END
>  <pIC50>  (137) 
8.70

>  <chembl_id>  (137) 
CHEMBL3298985

>  <canonical_smiles>  (137) 
CC[C@@H](NC(=O)N1CCc2cnc(NC3CCOCC3)nc2C1)c4ccc(C#N)c(Cl)c4

$$$$
CHEMBL3352835
     RDKit          2D

 32 35  0  0  0  0  0  0  0  0999 V2000
    1.4289   -4.9500    0.0000 C   0  0  0  0  0  0  0  0  0  0  0  0
    2.1434   -5.3625    0.0000 O   0  0  0  0  0  0  0  0  0  0  0  0
    2.1434   -6.1875    0.0000 C   0  0  0  0  0  0  0  0  0  0  0  0
    2.8579   -6.6000    0.0000 C   0  0  0  0  0  0  0  0  0  0  0  0
    2.8579   -7.4250    0.0000 C   0  0  0  0  0  0  0  0  0  0  0  0
    2.1434   -7.8375    0.0000 N   0  0  0  0  0  0  0  0  0  0  0  0
    1.4289   -7.4250    0.0000 C   0  0  0  0  0  0  0  0  0  0  0  0
    1.4289   -6.6000    0.0000 C   0  0  0  0  0  0  0  0  0  0  0  0
    2.1434   -8.6625    0.0000 C   0  0  0  0  0  0  0  0  0  0  0  0
    2.8579   -9.0750    0.0000 N   0  0  0  0  0  0  0  0  0  0  0  0
    2.8579   -9.9000    0.0000 C   0  0  0  0  0  0  0  0  0  0  0  0
    2.1434  -10.3125    0.0000 C   0  0  0  0  0  0  0  0  0  0  0  0
    1.4289   -9.9000    0.0000 C   0  0  0  0  0  0  0  0  0  0  0  0
    0.7145  -10.3125    0.0000 N   0  0  0  0  0  0  0  0  0  0  0  0
    0.0000   -9.9000    0.0000 C   0  0  0  0  0  0  0  0  0  0  0  0
   -0.7145  -10.3125    0.0000 C   0  0  0  0  0  0  0  0  0  0  0  0
   -1.4289   -9.9000    0.0000 C   0  0  0  0  0  0  0  0  0  0  0  0
   -2.1434  -10.3125    0.0000 N   0  0  0  0  0  0  0  0  0  0  0  0
   -2.1434  -11.1375    0.0000 C   0  0  0  0  0  0  0  0  0  0  0  0
   -1.4289  -11.5500    0.0000 O   0  0  0  0  0  0  0  0  0  0  0  0
   -2.8579  -11.5500    0.0000 C   0  0  0  0  0  0  0  0  0  0  0  0
   -2.8579  -12.3750    0.0000 C   0  0  0  0  0  0  0  0  0  0  0  0
   -2.1434  -12.7875    0.0000 Cl  0  0  0  0  0  0  0  0  0  0  0  0
   -3.5724  -12.7875    0.0000 C   0  0  0  0  0  0  0  0  0  0  0  0
   -4.2868  -12.3750    0.0000 C   0  0  0  0  0  0  0  0  0  0  0  0
   -4.2868  -11.5500    0.0000 C   0  0  0  0  0  0  0  0  0  0  0  0
   -3.5724  -11.1375    0.0000 C   0  0  0  0  0  0  0  0  0  0  0  0
   -3.5724  -10.3125    0.0000 Cl  0  0  0  0  0  0  0  0  0  0  0  0
   -1.4289   -9.0750    0.0000 C   0  0  0  0  0  0  0  0  0  0  0  0
   -0.7145   -8.6625    0.0000 C   0  0  0  0  0  0  0  0  0  0  0  0
    0.0000   -9.0750    0.0000 N   0  0  0  0  0  0  0  0  0  0  0  0
    1.4289   -9.0750    0.0000 N   0  0  0  0  0  0  0  0  0  0  0  0
  1  2  1  0
  2  3  1  0
  3  4  1  0
  4  5  1  0
  5  6  1  0
  6  7  1  0
  7  8  1  0
  3  8  1  0
  6  9  1  0
  9 10  2  0
 10 11  1  0
 11 12  2  0
 12 13  1  0
 13 14  1  0
 14 15  1  0
 15 16  2  0
 16 17  1  0
 17 18  1  0
 18 19  1  0
 19 20  2  0
 19 21  1  0
 21 22  2  0
 22 23  1  0
 22 24  1  0
 24 25  2  0
 25 26  1  0
 26 27  2  0
 21 27  1  0
 27 28  1  0
 17 29  2  0
 29 30  1  0
 30 31  2  0
 15 31  1  0
 13 32  2  0
  9 32  1  0
M  END
>  <pIC50>  (138) 
6.30

>  <chembl_id>  (138) 
CHEMBL3352835

>  <canonical_smiles>  (138) 
COC1CCN(CC1)c2nccc(Nc3cc(NC(=O)c4c(Cl)cccc4Cl)ccn3)n2

$$$$
CHEMBL3354185
     RDKit          2D

 29 33  0  0  0  0  0  0  0  0999 V2000
    3.4990    6.0604    0.0000 C   0  0  0  0  0  0  0  0  0  0  0  0
    4.2135    5.6479    0.0000 O   0  0  0  0  0  0  0  0  0  0  0  0
    4.2135    4.8229    0.0000 C   0  0  0  0  0  0  0  0  0  0  0  0
    4.9279    4.4104    0.0000 C   0  0  0  0  0  0  0  0  0  0  0  0
    4.9279    3.5854    0.0000 C   0  0  0  0  0  0  0  0  0  0  0  0
    4.2135    3.1729    0.0000 N   0  0  0  0  0  0  0  0  0  0  0  0
    3.4990    3.5854    0.0000 C   0  0  0  0  0  0  0  0  0  0  0  0
    3.4990    4.4104    0.0000 C   0  0  0  0  0  0  0  0  0  0  0  0
    4.2135    2.3479    0.0000 C   0  0  0  0  0  0  0  0  0  0  0  0
    4.9279    1.9354    0.0000 N   0  0  0  0  0  0  0  0  0  0  0  0
    4.9279    1.1104    0.0000 C   0  0  0  0  0  0  0  0  0  0  0  0
    4.2135    0.6979    0.0000 C   0  0  0  0  0  0  0  0  0  0  0  0
    3.4990    1.1104    0.0000 C   0  0  0  0  0  0  0  0  0  0  0  0
    2.7845    0.6979    0.0000 N   0  0  0  0  0  0  0  0  0  0  0  0
    2.0701    1.1104    0.0000 C   0  0  0  0  0  0  0  0  0  0  0  0
    1.3556    0.6979    0.0000 C   0  0  0  0  0  0  0  0  0  0  0  0
    0.6411    1.1104    0.0000 C   0  0  0  0  0  0  0  0  0  0  0  0
   -0.1435    0.8555    0.0000 N   0  0  0  0  0  0  0  0  0  0  0  0
   -0.6284    1.5229    0.0000 C   0  0  0  0  0  0  0  0  0  0  0  0
   -0.1435    2.1904    0.0000 N   0  0  0  0  0  0  0  0  0  0  0  0
    0.6411    1.9354    0.0000 C   0  0  0  0  0  0  0  0  0  0  0  0
    1.3556    2.3479    0.0000 C   0  0  0  0  0  0  0  0  0  0  0  0
    2.0701    1.9354    0.0000 N   0  0  0  0  0  0  0  0  0  0  0  0
   -1.4534    1.5229    0.0000 C   0  0  0  0  0  0  0  0  0  0  0  0
   -1.9384    0.8555    0.0000 C   0  0  0  0  0  0  0  0  0  0  0  0
   -2.7230    1.1104    0.0000 N   0  0  0  0  0  0  0  0  0  0  0  0
   -2.7230    1.9354    0.0000 N   0  0  0  0  0  0  0  0  0  0  0  0
   -1.9384    2.1904    0.0000 C   0  0  0  0  0  0  0  0  0  0  0  0
    3.4990    1.9354    0.0000 N   0  0  0  0  0  0  0  0  0  0  0  0
  1  2  1  0
  2  3  1  0
  3  4  1  0
  4  5  1  0
  5  6  1  0
  6  7  1  0
  7  8  1  0
  3  8  1  0
  6  9  1  0
  9 10  2  0
 10 11  1  0
 11 12  2  0
 12 13  1  0
 13 14  1  0
 14 15  1  0
 15 16  2  0
 16 17  1  0
 17 18  1  0
 18 19  2  0
 19 20  1  0
 20 21  1  0
 17 21  2  0
 21 22  1  0
 22 23  2  0
 15 23  1  0
 19 24  1  0
 24 25  1  0
 25 26  2  0
 26 27  1  0
 27 28  1  0
 24 28  2  0
 13 29  2  0
  9 29  1  0
M  END
>  <pIC50>  (139) 
7.05

>  <chembl_id>  (139) 
CHEMBL3354185

>  <canonical_smiles>  (139) 
COC1CCN(CC1)c2nccc(Nc3cc4[nH]c(nc4cn3)c5cn[nH]c5)n2

$$$$
CHEMBL3354186
     RDKit          2D

 29 33  0  0  0  0  0  0  0  0999 V2000
    3.4990    6.0604    0.0000 C   0  0  0  0  0  0  0  0  0  0  0  0
    4.2135    5.6479    0.0000 O   0  0  0  0  0  0  0  0  0  0  0  0
    4.2135    4.8229    0.0000 C   0  0  0  0  0  0  0  0  0  0  0  0
    4.9279    4.4104    0.0000 C   0  0  0  0  0  0  0  0  0  0  0  0
    4.9279    3.5854    0.0000 C   0  0  0  0  0  0  0  0  0  0  0  0
    4.2135    3.1729    0.0000 N   0  0  0  0  0  0  0  0  0  0  0  0
    3.4990    3.5854    0.0000 C   0  0  0  0  0  0  0  0  0  0  0  0
    3.4990    4.4104    0.0000 C   0  0  0  0  0  0  0  0  0  0  0  0
    4.2135    2.3479    0.0000 C   0  0  0  0  0  0  0  0  0  0  0  0
    4.9279    1.9354    0.0000 N   0  0  0  0  0  0  0  0  0  0  0  0
    4.9279    1.1104    0.0000 C   0  0  0  0  0  0  0  0  0  0  0  0
    4.2135    0.6979    0.0000 C   0  0  0  0  0  0  0  0  0  0  0  0
    3.4990    1.1104    0.0000 C   0  0  0  0  0  0  0  0  0  0  0  0
    2.7845    0.6979    0.0000 N   0  0  0  0  0  0  0  0  0  0  0  0
    2.0701    1.1104    0.0000 C   0  0  0  0  0  0  0  0  0  0  0  0
    1.3556    0.6979    0.0000 C   0  0  0  0  0  0  0  0  0  0  0  0
    0.6411    1.1104    0.0000 C   0  0  0  0  0  0  0  0  0  0  0  0
   -0.1435    0.8555    0.0000 N   0  0  0  0  0  0  0  0  0  0  0  0
   -0.6284    1.5229    0.0000 C   0  0  0  0  0  0  0  0  0  0  0  0
   -0.1435    2.1904    0.0000 C   0  0  0  0  0  0  0  0  0  0  0  0
    0.6411    1.9354    0.0000 C   0  0  0  0  0  0  0  0  0  0  0  0
    1.3556    2.3479    0.0000 C   0  0  0  0  0  0  0  0  0  0  0  0
    2.0701    1.9354    0.0000 N   0  0  0  0  0  0  0  0  0  0  0  0
   -1.4534    1.5229    0.0000 C   0  0  0  0  0  0  0  0  0  0  0  0
   -1.9384    0.8555    0.0000 C   0  0  0  0  0  0  0  0  0  0  0  0
   -2.7230    1.1104    0.0000 N   0  0  0  0  0  0  0  0  0  0  0  0
   -2.7230    1.9354    0.0000 N   0  0  0  0  0  0  0  0  0  0  0  0
   -1.9384    2.1904    0.0000 C   0  0  0  0  0  0  0  0  0  0  0  0
    3.4990    1.9354    0.0000 N   0  0  0  0  0  0  0  0  0  0  0  0
  1  2  1  0
  2  3  1  0
  3  4  1  0
  4  5  1  0
  5  6  1  0
  6  7  1  0
  7  8  1  0
  3  8  1  0
  6  9  1  0
  9 10  2  0
 10 11  1  0
 11 12  2  0
 12 13  1  0
 13 14  1  0
 14 15  1  0
 15 16  2  0
 16 17  1  0
 17 18  1  0
 18 19  1  0
 19 20  2  0
 20 21  1  0
 17 21  2  0
 21 22  1  0
 22 23  2  0
 15 23  1  0
 19 24  1  0
 24 25  1  0
 25 26  2  0
 26 27  1  0
 27 28  1  0
 24 28  2  0
 13 29  2  0
  9 29  1  0
M  END
>  <pIC50>  (140) 
8.30

>  <chembl_id>  (140) 
CHEMBL3354186

>  <canonical_smiles>  (140) 
COC1CCN(CC1)c2nccc(Nc3cc4[nH]c(cc4cn3)c5cn[nH]c5)n2

$$$$
CHEMBL3354187
     RDKit          2D

 32 36  0  0  0  0  0  0  0  0999 V2000
    3.4990    6.0604    0.0000 C   0  0  0  0  0  0  0  0  0  0  0  0
    4.2135    5.6479    0.0000 O   0  0  0  0  0  0  0  0  0  0  0  0
    4.2135    4.8229    0.0000 C   0  0  0  0  0  0  0  0  0  0  0  0
    4.9279    4.4104    0.0000 C   0  0  0  0  0  0  0  0  0  0  0  0
    4.9279    3.5854    0.0000 C   0  0  0  0  0  0  0  0  0  0  0  0
    4.2135    3.1729    0.0000 N   0  0  0  0  0  0  0  0  0  0  0  0
    3.4990    3.5854    0.0000 C   0  0  0  0  0  0  0  0  0  0  0  0
    3.4990    4.4104    0.0000 C   0  0  0  0  0  0  0  0  0  0  0  0
    4.2135    2.3479    0.0000 C   0  0  0  0  0  0  0  0  0  0  0  0
    4.9279    1.9354    0.0000 N   0  0  0  0  0  0  0  0  0  0  0  0
    4.9279    1.1104    0.0000 C   0  0  0  0  0  0  0  0  0  0  0  0
    4.2135    0.6979    0.0000 C   0  0  0  0  0  0  0  0  0  0  0  0
    3.4990    1.1104    0.0000 C   0  0  0  0  0  0  0  0  0  0  0  0
    2.7845    0.6979    0.0000 N   0  0  0  0  0  0  0  0  0  0  0  0
    2.0701    1.1104    0.0000 C   0  0  0  0  0  0  0  0  0  0  0  0
    1.3556    0.6979    0.0000 C   0  0  0  0  0  0  0  0  0  0  0  0
    0.6411    1.1104    0.0000 C   0  0  0  0  0  0  0  0  0  0  0  0
    0.6411    1.9354    0.0000 C   0  0  0  0  0  0  0  0  0  0  0  0
    1.3556    2.3479    0.0000 C   0  0  0  0  0  0  0  0  0  0  0  0
    2.0701    1.9354    0.0000 N   0  0  0  0  0  0  0  0  0  0  0  0
   -0.1435    2.1904    0.0000 C   0  0  0  0  0  0  0  0  0  0  0  0
   -0.6284    1.5229    0.0000 C   0  0  0  0  0  0  0  0  0  0  0  0
   -1.4534    1.5229    0.0000 C   0  0  0  0  0  0  0  0  0  0  0  0
   -1.9384    0.8555    0.0000 C   0  0  0  0  0  0  0  0  0  0  0  0
   -2.7230    1.1104    0.0000 N   0  0  0  0  0  0  0  0  0  0  0  0
   -2.7230    1.9354    0.0000 N   0  0  0  0  0  0  0  0  0  0  0  0
   -1.9384    2.1904    0.0000 C   0  0  0  0  0  0  0  0  0  0  0  0
   -0.1435    0.8555    0.0000 N   0  0  0  0  0  0  0  0  0  0  0  0
   -0.3984    0.0709    0.0000 C   0  0  0  0  0  0  0  0  0  0  0  0
    0.1536   -0.5422    0.0000 C   0  0  0  0  0  0  0  0  0  0  0  0
   -1.2054   -0.1006    0.0000 C   0  0  0  0  0  0  0  0  0  0  0  0
    3.4990    1.9354    0.0000 N   0  0  0  0  0  0  0  0  0  0  0  0
  1  2  1  0
  2  3  1  0
  3  4  1  0
  4  5  1  0
  5  6  1  0
  6  7  1  0
  7  8  1  0
  3  8  1  0
  6  9  1  0
  9 10  2  0
 10 11  1  0
 11 12  2  0
 12 13  1  0
 13 14  1  0
 14 15  1  0
 15 16  2  0
 16 17  1  0
 17 18  2  0
 18 19  1  0
 19 20  2  0
 15 20  1  0
 18 21  1  0
 21 22  2  0
 22 23  1  0
 23 24  1  0
 24 25  2  0
 25 26  1  0
 26 27  1  0
 23 27  2  0
 22 28  1  0
 17 28  1  0
 28 29  1  0
 29 30  1  0
 29 31  1  0
 13 32  2  0
  9 32  1  0
M  END
>  <pIC50>  (141) 
8.00

>  <chembl_id>  (141) 
CHEMBL3354187

>  <canonical_smiles>  (141) 
COC1CCN(CC1)c2nccc(Nc3cc4c(cn3)cc(c5cn[nH]c5)n4C(C)C)n2

$$$$
CHEMBL3354188
     RDKit          2D

 27 30  0  0  0  0  0  0  0  0999 V2000
    3.4990    6.0604    0.0000 C   0  0  0  0  0  0  0  0  0  0  0  0
    4.2135    5.6479    0.0000 O   0  0  0  0  0  0  0  0  0  0  0  0
    4.2135    4.8229    0.0000 C   0  0  0  0  0  0  0  0  0  0  0  0
    4.9279    4.4104    0.0000 C   0  0  0  0  0  0  0  0  0  0  0  0
    4.9279    3.5854    0.0000 C   0  0  0  0  0  0  0  0  0  0  0  0
    4.2135    3.1729    0.0000 N   0  0  0  0  0  0  0  0  0  0  0  0
    3.4990    3.5854    0.0000 C   0  0  0  0  0  0  0  0  0  0  0  0
    3.4990    4.4104    0.0000 C   0  0  0  0  0  0  0  0  0  0  0  0
    4.2135    2.3479    0.0000 C   0  0  0  0  0  0  0  0  0  0  0  0
    4.9279    1.9354    0.0000 N   0  0  0  0  0  0  0  0  0  0  0  0
    4.9279    1.1104    0.0000 C   0  0  0  0  0  0  0  0  0  0  0  0
    4.2135    0.6979    0.0000 C   0  0  0  0  0  0  0  0  0  0  0  0
    3.4990    1.1104    0.0000 C   0  0  0  0  0  0  0  0  0  0  0  0
    2.7845    0.6979    0.0000 N   0  0  0  0  0  0  0  0  0  0  0  0
    2.0701    1.1104    0.0000 C   0  0  0  0  0  0  0  0  0  0  0  0
    1.3556    0.6979    0.0000 C   0  0  0  0  0  0  0  0  0  0  0  0
    0.6411    1.1104    0.0000 C   0  0  0  0  0  0  0  0  0  0  0  0
    0.6411    1.9354    0.0000 C   0  0  0  0  0  0  0  0  0  0  0  0
   -0.1435    2.1904    0.0000 C   0  0  0  0  0  0  0  0  0  0  0  0
   -0.6284    1.5229    0.0000 C   0  0  0  0  0  0  0  0  0  0  0  0
   -0.1435    0.8555    0.0000 N   0  0  0  0  0  0  0  0  0  0  0  0
   -0.3984    0.0709    0.0000 C   0  0  0  0  0  0  0  0  0  0  0  0
    0.1536   -0.5422    0.0000 C   0  0  0  0  0  0  0  0  0  0  0  0
   -1.2054   -0.1006    0.0000 C   0  0  0  0  0  0  0  0  0  0  0  0
    1.3556    2.3479    0.0000 C   0  0  0  0  0  0  0  0  0  0  0  0
    2.0701    1.9354    0.0000 N   0  0  0  0  0  0  0  0  0  0  0  0
    3.4990    1.9354    0.0000 N   0  0  0  0  0  0  0  0  0  0  0  0
  1  2  1  0
  2  3  1  0
  3  4  1  0
  4  5  1  0
  5  6  1  0
  6  7  1  0
  7  8  1  0
  3  8  1  0
  6  9  1  0
  9 10  2  0
 10 11  1  0
 11 12  2  0
 12 13  1  0
 13 14  1  0
 14 15  1  0
 15 16  2  0
 16 17  1  0
 17 18  2  0
 18 19  1  0
 19 20  2  0
 20 21  1  0
 17 21  1  0
 21 22  1  0
 22 23  1  0
 22 24  1  0
 18 25  1  0
 25 26  2  0
 15 26  1  0
 13 27  2  0
  9 27  1  0
M  END
>  <pIC50>  (142) 
7.10

>  <chembl_id>  (142) 
CHEMBL3354188

>  <canonical_smiles>  (142) 
COC1CCN(CC1)c2nccc(Nc3cc4c(ccn4C(C)C)cn3)n2

$$$$
CHEMBL3354189
     RDKit          2D

 29 33  0  0  0  0  0  0  0  0999 V2000
    3.4990    6.0604    0.0000 C   0  0  0  0  0  0  0  0  0  0  0  0
    4.2135    5.6479    0.0000 O   0  0  0  0  0  0  0  0  0  0  0  0
    4.2135    4.8229    0.0000 C   0  0  0  0  0  0  0  0  0  0  0  0
    4.9279    4.4104    0.0000 C   0  0  0  0  0  0  0  0  0  0  0  0
    4.9279    3.5854    0.0000 C   0  0  0  0  0  0  0  0  0  0  0  0
    4.2135    3.1729    0.0000 N   0  0  0  0  0  0  0  0  0  0  0  0
    3.4990    3.5854    0.0000 C   0  0  0  0  0  0  0  0  0  0  0  0
    3.4990    4.4104    0.0000 C   0  0  0  0  0  0  0  0  0  0  0  0
    4.2135    2.3479    0.0000 C   0  0  0  0  0  0  0  0  0  0  0  0
    4.9279    1.9354    0.0000 N   0  0  0  0  0  0  0  0  0  0  0  0
    4.9279    1.1104    0.0000 C   0  0  0  0  0  0  0  0  0  0  0  0
    4.2135    0.6979    0.0000 C   0  0  0  0  0  0  0  0  0  0  0  0
    3.4990    1.1104    0.0000 C   0  0  0  0  0  0  0  0  0  0  0  0
    2.7845    0.6979    0.0000 N   0  0  0  0  0  0  0  0  0  0  0  0
    2.0701    1.1104    0.0000 C   0  0  0  0  0  0  0  0  0  0  0  0
    1.3556    0.6979    0.0000 C   0  0  0  0  0  0  0  0  0  0  0  0
    0.6411    1.1104    0.0000 C   0  0  0  0  0  0  0  0  0  0  0  0
    0.6411    1.9354    0.0000 C   0  0  0  0  0  0  0  0  0  0  0  0
   -0.1435    2.1904    0.0000 C   0  0  0  0  0  0  0  0  0  0  0  0
   -0.6284    1.5229    0.0000 C   0  0  0  0  0  0  0  0  0  0  0  0
   -0.1435    0.8555    0.0000 N   0  0  0  0  0  0  0  0  0  0  0  0
   -0.3984    0.0709    0.0000 C   0  0  0  0  0  0  0  0  0  0  0  0
    0.0865   -0.5966    0.0000 C   0  0  0  0  0  0  0  0  0  0  0  0
   -0.3984   -1.2640    0.0000 C   0  0  0  0  0  0  0  0  0  0  0  0
   -1.1831   -1.0091    0.0000 C   0  0  0  0  0  0  0  0  0  0  0  0
   -1.1831   -0.1841    0.0000 C   0  0  0  0  0  0  0  0  0  0  0  0
    1.3556    2.3479    0.0000 C   0  0  0  0  0  0  0  0  0  0  0  0
    2.0701    1.9354    0.0000 N   0  0  0  0  0  0  0  0  0  0  0  0
    3.4990    1.9354    0.0000 N   0  0  0  0  0  0  0  0  0  0  0  0
  1  2  1  0
  2  3  1  0
  3  4  1  0
  4  5  1  0
  5  6  1  0
  6  7  1  0
  7  8  1  0
  3  8  1  0
  6  9  1  0
  9 10  2  0
 10 11  1  0
 11 12  2  0
 12 13  1  0
 13 14  1  0
 14 15  1  0
 15 16  2  0
 16 17  1  0
 17 18  2  0
 18 19  1  0
 19 20  2  0
 20 21  1  0
 17 21  1  0
 21 22  1  0
 22 23  1  0
 23 24  1  0
 24 25  1  0
 25 26  1  0
 22 26  1  0
 18 27  1  0
 27 28  2  0
 15 28  1  0
 13 29  2  0
  9 29  1  0
M  END
>  <pIC50>  (143) 
7.03

>  <chembl_id>  (143) 
CHEMBL3354189

>  <canonical_smiles>  (143) 
COC1CCN(CC1)c2nccc(Nc3cc4c(ccn4C5CCCC5)cn3)n2

$$$$
CHEMBL3354190
     RDKit          2D

 27 30  0  0  0  0  0  0  0  0999 V2000
    3.4990    6.0604    0.0000 C   0  0  0  0  0  0  0  0  0  0  0  0
    4.2135    5.6479    0.0000 O   0  0  0  0  0  0  0  0  0  0  0  0
    4.2135    4.8229    0.0000 C   0  0  0  0  0  0  0  0  0  0  0  0
    4.9279    4.4104    0.0000 C   0  0  0  0  0  0  0  0  0  0  0  0
    4.9279    3.5854    0.0000 C   0  0  0  0  0  0  0  0  0  0  0  0
    4.2135    3.1729    0.0000 N   0  0  0  0  0  0  0  0  0  0  0  0
    3.4990    3.5854    0.0000 C   0  0  0  0  0  0  0  0  0  0  0  0
    3.4990    4.4104    0.0000 C   0  0  0  0  0  0  0  0  0  0  0  0
    4.2135    2.3479    0.0000 C   0  0  0  0  0  0  0  0  0  0  0  0
    4.9279    1.9354    0.0000 N   0  0  0  0  0  0  0  0  0  0  0  0
    4.9279    1.1104    0.0000 C   0  0  0  0  0  0  0  0  0  0  0  0
    4.2135    0.6979    0.0000 C   0  0  0  0  0  0  0  0  0  0  0  0
    3.4990    1.1104    0.0000 C   0  0  0  0  0  0  0  0  0  0  0  0
    2.7845    0.6979    0.0000 N   0  0  0  0  0  0  0  0  0  0  0  0
    2.0701    1.1104    0.0000 C   0  0  0  0  0  0  0  0  0  0  0  0
    1.3556    0.6979    0.0000 C   0  0  0  0  0  0  0  0  0  0  0  0
    0.6411    1.1104    0.0000 C   0  0  0  0  0  0  0  0  0  0  0  0
    0.6411    1.9354    0.0000 C   0  0  0  0  0  0  0  0  0  0  0  0
    1.3556    2.3479    0.0000 C   0  0  0  0  0  0  0  0  0  0  0  0
    2.0701    1.9354    0.0000 N   0  0  0  0  0  0  0  0  0  0  0  0
   -0.1435    2.1904    0.0000 N   0  0  0  0  0  0  0  0  0  0  0  0
   -0.6284    1.5229    0.0000 C   0  0  0  0  0  0  0  0  0  0  0  0
   -0.1435    0.8555    0.0000 N   0  0  0  0  0  0  0  0  0  0  0  0
   -0.3984    0.0709    0.0000 C   0  0  0  0  0  0  0  0  0  0  0  0
    0.1536   -0.5422    0.0000 C   0  0  0  0  0  0  0  0  0  0  0  0
   -1.2054   -0.1006    0.0000 C   0  0  0  0  0  0  0  0  0  0  0  0
    3.4990    1.9354    0.0000 N   0  0  0  0  0  0  0  0  0  0  0  0
  1  2  1  0
  2  3  1  0
  3  4  1  0
  4  5  1  0
  5  6  1  0
  6  7  1  0
  7  8  1  0
  3  8  1  0
  6  9  1  0
  9 10  2  0
 10 11  1  0
 11 12  2  0
 12 13  1  0
 13 14  1  0
 14 15  1  0
 15 16  2  0
 16 17  1  0
 17 18  2  0
 18 19  1  0
 19 20  2  0
 15 20  1  0
 18 21  1  0
 21 22  2  0
 22 23  1  0
 17 23  1  0
 23 24  1  0
 24 25  1  0
 24 26  1  0
 13 27  2  0
  9 27  1  0
M  END
>  <pIC50>  (144) 
5.65

>  <chembl_id>  (144) 
CHEMBL3354190

>  <canonical_smiles>  (144) 
COC1CCN(CC1)c2nccc(Nc3cc4c(cn3)ncn4C(C)C)n2

$$$$
CHEMBL3354191
     RDKit          2D

 28 31  0  0  0  0  0  0  0  0999 V2000
    3.4990    6.0604    0.0000 C   0  0  0  0  0  0  0  0  0  0  0  0
    4.2135    5.6479    0.0000 O   0  0  0  0  0  0  0  0  0  0  0  0
    4.2135    4.8229    0.0000 C   0  0  0  0  0  0  0  0  0  0  0  0
    4.9279    4.4104    0.0000 C   0  0  0  0  0  0  0  0  0  0  0  0
    4.9279    3.5854    0.0000 C   0  0  0  0  0  0  0  0  0  0  0  0
    4.2135    3.1729    0.0000 N   0  0  0  0  0  0  0  0  0  0  0  0
    3.4990    3.5854    0.0000 C   0  0  0  0  0  0  0  0  0  0  0  0
    3.4990    4.4104    0.0000 C   0  0  0  0  0  0  0  0  0  0  0  0
    4.2135    2.3479    0.0000 C   0  0  0  0  0  0  0  0  0  0  0  0
    4.9279    1.9354    0.0000 N   0  0  0  0  0  0  0  0  0  0  0  0
    4.9279    1.1104    0.0000 C   0  0  0  0  0  0  0  0  0  0  0  0
    4.2135    0.6979    0.0000 C   0  0  0  0  0  0  0  0  0  0  0  0
    3.4990    1.1104    0.0000 C   0  0  0  0  0  0  0  0  0  0  0  0
    2.7845    0.6979    0.0000 N   0  0  0  0  0  0  0  0  0  0  0  0
    2.0701    1.1104    0.0000 C   0  0  0  0  0  0  0  0  0  0  0  0
    1.3556    0.6979    0.0000 C   0  0  0  0  0  0  0  0  0  0  0  0
    0.6411    1.1104    0.0000 C   0  0  0  0  0  0  0  0  0  0  0  0
    0.6411    1.9354    0.0000 C   0  0  0  0  0  0  0  0  0  0  0  0
    1.3556    2.3479    0.0000 C   0  0  0  0  0  0  0  0  0  0  0  0
    2.0701    1.9354    0.0000 N   0  0  0  0  0  0  0  0  0  0  0  0
   -0.1435    2.1904    0.0000 C   0  0  0  0  0  0  0  0  0  0  0  0
   -0.3984    2.9750    0.0000 N   0  0  0  0  0  0  0  0  0  0  0  0
   -0.6284    1.5229    0.0000 N   0  0  0  0  0  0  0  0  0  0  0  0
   -0.1435    0.8555    0.0000 N   0  0  0  0  0  0  0  0  0  0  0  0
   -0.3984    0.0709    0.0000 C   0  0  0  0  0  0  0  0  0  0  0  0
    0.1536   -0.5422    0.0000 C   0  0  0  0  0  0  0  0  0  0  0  0
   -1.2054   -0.1006    0.0000 C   0  0  0  0  0  0  0  0  0  0  0  0
    3.4990    1.9354    0.0000 N   0  0  0  0  0  0  0  0  0  0  0  0
  1  2  1  0
  2  3  1  0
  3  4  1  0
  4  5  1  0
  5  6  1  0
  6  7  1  0
  7  8  1  0
  3  8  1  0
  6  9  1  0
  9 10  2  0
 10 11  1  0
 11 12  2  0
 12 13  1  0
 13 14  1  0
 14 15  1  0
 15 16  2  0
 16 17  1  0
 17 18  2  0
 18 19  1  0
 19 20  2  0
 15 20  1  0
 18 21  1  0
 21 22  1  0
 21 23  2  0
 23 24  1  0
 17 24  1  0
 24 25  1  0
 25 26  1  0
 25 27  1  0
 13 28  2  0
  9 28  1  0
M  END
>  <pIC50>  (145) 
6.28

>  <chembl_id>  (145) 
CHEMBL3354191

>  <canonical_smiles>  (145) 
COC1CCN(CC1)c2nccc(Nc3cc4c(cn3)c(N)nn4C(C)C)n2

$$$$
CHEMBL3354192
     RDKit          2D

 27 30  0  0  0  0  0  0  0  0999 V2000
    3.4990    6.0604    0.0000 C   0  0  0  0  0  0  0  0  0  0  0  0
    4.2135    5.6479    0.0000 O   0  0  0  0  0  0  0  0  0  0  0  0
    4.2135    4.8229    0.0000 C   0  0  0  0  0  0  0  0  0  0  0  0
    4.9279    4.4104    0.0000 C   0  0  0  0  0  0  0  0  0  0  0  0
    4.9279    3.5854    0.0000 C   0  0  0  0  0  0  0  0  0  0  0  0
    4.2135    3.1729    0.0000 N   0  0  0  0  0  0  0  0  0  0  0  0
    3.4990    3.5854    0.0000 C   0  0  0  0  0  0  0  0  0  0  0  0
    3.4990    4.4104    0.0000 C   0  0  0  0  0  0  0  0  0  0  0  0
    4.2135    2.3479    0.0000 C   0  0  0  0  0  0  0  0  0  0  0  0
    4.9279    1.9354    0.0000 N   0  0  0  0  0  0  0  0  0  0  0  0
    4.9279    1.1104    0.0000 C   0  0  0  0  0  0  0  0  0  0  0  0
    4.2135    0.6979    0.0000 C   0  0  0  0  0  0  0  0  0  0  0  0
    3.4990    1.1104    0.0000 C   0  0  0  0  0  0  0  0  0  0  0  0
    2.7845    0.6979    0.0000 N   0  0  0  0  0  0  0  0  0  0  0  0
    2.0701    1.1104    0.0000 C   0  0  0  0  0  0  0  0  0  0  0  0
    1.3556    0.6979    0.0000 C   0  0  0  0  0  0  0  0  0  0  0  0
    0.6411    1.1104    0.0000 C   0  0  0  0  0  0  0  0  0  0  0  0
   -0.1435    0.8555    0.0000 C   0  0  0  0  0  0  0  0  0  0  0  0
   -0.6284    1.5229    0.0000 N   0  0  0  0  0  0  0  0  0  0  0  0
   -0.1435    2.1904    0.0000 N   0  0  0  0  0  0  0  0  0  0  0  0
    0.6411    1.9354    0.0000 C   0  0  0  0  0  0  0  0  0  0  0  0
    1.3556    2.3479    0.0000 C   0  0  0  0  0  0  0  0  0  0  0  0
    2.0701    1.9354    0.0000 N   0  0  0  0  0  0  0  0  0  0  0  0
   -0.3984    0.0709    0.0000 C   0  0  0  0  0  0  0  0  0  0  0  0
    0.1536   -0.5422    0.0000 C   0  0  0  0  0  0  0  0  0  0  0  0
   -1.2054   -0.1006    0.0000 C   0  0  0  0  0  0  0  0  0  0  0  0
    3.4990    1.9354    0.0000 N   0  0  0  0  0  0  0  0  0  0  0  0
  1  2  1  0
  2  3  1  0
  3  4  1  0
  4  5  1  0
  5  6  1  0
  6  7  1  0
  7  8  1  0
  3  8  1  0
  6  9  1  0
  9 10  2  0
 10 11  1  0
 11 12  2  0
 12 13  1  0
 13 14  1  0
 14 15  1  0
 15 16  2  0
 16 17  1  0
 17 18  2  0
 18 19  1  0
 19 20  1  0
 20 21  2  0
 17 21  1  0
 21 22  1  0
 22 23  2  0
 15 23  1  0
 18 24  1  0
 24 25  1  0
 24 26  1  0
 13 27  2  0
  9 27  1  0
M  END
>  <pIC50>  (146) 
6.32

>  <chembl_id>  (146) 
CHEMBL3354192

>  <canonical_smiles>  (146) 
COC1CCN(CC1)c2nccc(Nc3cc4c(n[nH]c4cn3)C(C)C)n2

$$$$
CHEMBL3357950
     RDKit          2D

 30 33  0  0  1  0  0  0  0  0999 V2000
   -1.4289   -2.4750    0.0000 C   0  0  0  0  0  0  0  0  0  0  0  0
   -1.4289   -1.6500    0.0000 C   0  0  0  0  0  0  0  0  0  0  0  0
   -0.7145   -1.2375    0.0000 N   0  0  0  0  0  0  0  0  0  0  0  0
    0.0000   -1.6500    0.0000 C   0  0  0  0  0  0  0  0  0  0  0  0
    0.0000   -2.4750    0.0000 O   0  0  0  0  0  0  0  0  0  0  0  0
    0.7145   -1.2375    0.0000 N   0  0  0  0  0  0  0  0  0  0  0  0
    0.7145   -0.4125    0.0000 C   0  0  0  0  0  0  0  0  0  0  0  0
    1.4289    0.0000    0.0000 C   0  0  0  0  0  0  0  0  0  0  0  0
    2.1434   -0.4125    0.0000 C   0  0  0  0  0  0  0  0  0  0  0  0
    2.8579    0.0000    0.0000 C   0  0  0  0  0  0  0  0  0  0  0  0
    3.5724   -0.4125    0.0000 N   0  0  0  0  0  0  0  0  0  0  0  0
    3.5724   -1.2375    0.0000 C   0  0  0  0  0  0  0  0  0  0  0  0
    4.2868   -1.6500    0.0000 N   0  0  0  0  0  0  0  0  0  0  0  0
    5.0013   -1.2375    0.0000 C   0  0  0  0  0  0  0  0  0  0  0  0
    5.0875   -0.4170    0.0000 C   0  0  0  0  0  0  0  0  0  0  0  0
    5.8945   -0.2455    0.0000 N   0  0  0  0  0  0  0  0  0  0  0  0
    6.3070   -0.9600    0.0000 N   0  0  0  0  0  0  0  0  0  0  0  0
    7.1275   -1.0462    0.0000 C   0  0  0  0  0  0  0  0  0  0  0  0
    5.7550   -1.5731    0.0000 C   0  0  0  0  0  0  0  0  0  0  0  0
    2.8579   -1.6500    0.0000 N   0  0  0  0  0  0  0  0  0  0  0  0
    2.1434   -1.2375    0.0000 C   0  0  0  0  0  0  0  0  0  0  0  0
    1.4289   -1.6500    0.0000 C   0  0  0  0  0  0  0  0  0  0  0  0
   -2.1434   -1.2375    0.0000 C   0  0  0  0  0  0  0  0  0  0  0  0
   -2.8579   -1.6500    0.0000 C   0  0  0  0  0  0  0  0  0  0  0  0
   -3.5724   -1.2375    0.0000 C   0  0  0  0  0  0  0  0  0  0  0  0
   -3.5724   -0.4125    0.0000 C   0  0  0  0  0  0  0  0  0  0  0  0
   -4.2868    0.0000    0.0000 Cl  0  0  0  0  0  0  0  0  0  0  0  0
   -2.8579    0.0000    0.0000 C   0  0  0  0  0  0  0  0  0  0  0  0
   -2.8579    0.8250    0.0000 Cl  0  0  0  0  0  0  0  0  0  0  0  0
   -2.1434   -0.4125    0.0000 C   0  0  0  0  0  0  0  0  0  0  0  0
  2  1  1  6
  2  3  1  0
  3  4  1  0
  4  5  2  0
  4  6  1  0
  6  7  1  0
  7  8  1  0
  8  9  1  0
  9 10  2  0
 10 11  1  0
 11 12  2  0
 12 13  1  0
 13 14  1  0
 14 15  1  0
 15 16  2  0
 16 17  1  0
 17 18  1  0
 17 19  1  0
 14 19  2  0
 12 20  1  0
 20 21  2  0
  9 21  1  0
 21 22  1  0
  6 22  1  0
  2 23  1  0
 23 24  2  0
 24 25  1  0
 25 26  2  0
 26 27  1  0
 26 28  1  0
 28 29  1  0
 28 30  2  0
 23 30  1  0
M  END
>  <pIC50>  (147) 
8.40

>  <chembl_id>  (147) 
CHEMBL3357950

>  <canonical_smiles>  (147) 
C[C@@H](NC(=O)N1CCc2cnc(Nc3cnn(C)c3)nc2C1)c4ccc(Cl)c(Cl)c4

$$$$
CHEMBL3357951
     RDKit          2D

 30 33  0  0  1  0  0  0  0  0999 V2000
   -1.4289   -2.4750    0.0000 C   0  0  0  0  0  0  0  0  0  0  0  0
   -1.4289   -1.6500    0.0000 C   0  0  0  0  0  0  0  0  0  0  0  0
   -0.7145   -1.2375    0.0000 N   0  0  0  0  0  0  0  0  0  0  0  0
    0.0000   -1.6500    0.0000 C   0  0  0  0  0  0  0  0  0  0  0  0
    0.0000   -2.4750    0.0000 O   0  0  0  0  0  0  0  0  0  0  0  0
    0.7145   -1.2375    0.0000 N   0  0  0  0  0  0  0  0  0  0  0  0
    0.7145   -0.4125    0.0000 C   0  0  0  0  0  0  0  0  0  0  0  0
    1.4289    0.0000    0.0000 C   0  0  0  0  0  0  0  0  0  0  0  0
    2.1434   -0.4125    0.0000 C   0  0  0  0  0  0  0  0  0  0  0  0
    2.8579    0.0000    0.0000 C   0  0  0  0  0  0  0  0  0  0  0  0
    3.5724   -0.4125    0.0000 N   0  0  0  0  0  0  0  0  0  0  0  0
    3.5724   -1.2375    0.0000 C   0  0  0  0  0  0  0  0  0  0  0  0
    4.2868   -1.6500    0.0000 N   0  0  0  0  0  0  0  0  0  0  0  0
    5.0013   -1.2375    0.0000 C   0  0  0  0  0  0  0  0  0  0  0  0
    5.0875   -0.4170    0.0000 C   0  0  0  0  0  0  0  0  0  0  0  0
    5.8945   -0.2455    0.0000 C   0  0  0  0  0  0  0  0  0  0  0  0
    6.3070   -0.9600    0.0000 N   0  0  0  0  0  0  0  0  0  0  0  0
    5.7550   -1.5731    0.0000 N   0  0  0  0  0  0  0  0  0  0  0  0
    5.9265   -2.3800    0.0000 C   0  0  0  0  0  0  0  0  0  0  0  0
    2.8579   -1.6500    0.0000 N   0  0  0  0  0  0  0  0  0  0  0  0
    2.1434   -1.2375    0.0000 C   0  0  0  0  0  0  0  0  0  0  0  0
    1.4289   -1.6500    0.0000 C   0  0  0  0  0  0  0  0  0  0  0  0
   -2.1434   -1.2375    0.0000 C   0  0  0  0  0  0  0  0  0  0  0  0
   -2.8579   -1.6500    0.0000 C   0  0  0  0  0  0  0  0  0  0  0  0
   -3.5724   -1.2375    0.0000 C   0  0  0  0  0  0  0  0  0  0  0  0
   -3.5724   -0.4125    0.0000 C   0  0  0  0  0  0  0  0  0  0  0  0
   -4.2868    0.0000    0.0000 Cl  0  0  0  0  0  0  0  0  0  0  0  0
   -2.8579    0.0000    0.0000 C   0  0  0  0  0  0  0  0  0  0  0  0
   -2.8579    0.8250    0.0000 Cl  0  0  0  0  0  0  0  0  0  0  0  0
   -2.1434   -0.4125    0.0000 C   0  0  0  0  0  0  0  0  0  0  0  0
  2  1  1  6
  2  3  1  0
  3  4  1  0
  4  5  2  0
  4  6  1  0
  6  7  1  0
  7  8  1  0
  8  9  1  0
  9 10  2  0
 10 11  1  0
 11 12  2  0
 12 13  1  0
 13 14  1  0
 14 15  2  0
 15 16  1  0
 16 17  2  0
 17 18  1  0
 14 18  1  0
 18 19  1  0
 12 20  1  0
 20 21  2  0
  9 21  1  0
 21 22  1  0
  6 22  1  0
  2 23  1  0
 23 24  2  0
 24 25  1  0
 25 26  2  0
 26 27  1  0
 26 28  1  0
 28 29  1  0
 28 30  2  0
 23 30  1  0
M  END
>  <pIC50>  (148) 
7.64

>  <chembl_id>  (148) 
CHEMBL3357951

>  <canonical_smiles>  (148) 
C[C@@H](NC(=O)N1CCc2cnc(Nc3ccnn3C)nc2C1)c4ccc(Cl)c(Cl)c4

$$$$
CHEMBL336242
     RDKit          2D

 34 39  0  0  1  0  0  0  0  0999 V2000
   -5.9511   -6.3491    0.0000 Cl  0  0  0  0  0  0  0  0  0  0  0  0
   -5.3273   -5.8093    0.0000 C   0  0  0  0  0  0  0  0  0  0  0  0
   -5.4829   -4.9991    0.0000 C   0  0  0  0  0  0  0  0  0  0  0  0
   -4.8590   -4.4593    0.0000 C   0  0  0  0  0  0  0  0  0  0  0  0
   -4.0796   -4.7296    0.0000 C   0  0  0  0  0  0  0  0  0  0  0  0
   -3.3571   -4.3313    0.0000 C   0  0  0  0  0  0  0  0  0  0  0  0
   -2.7550   -4.8953    0.0000 C   0  0  0  0  0  0  0  0  0  0  0  0
   -3.1054   -5.6422    0.0000 C   0  0  0  0  0  0  0  0  0  0  0  0
   -3.9240   -5.5398    0.0000 C   0  0  0  0  0  0  0  0  0  0  0  0
   -4.5478   -6.0797    0.0000 C   0  0  0  0  0  0  0  0  0  0  0  0
   -1.9448   -4.7397    0.0000 N   0  0  0  0  0  0  0  0  0  0  0  0
   -1.6745   -3.9603    0.0000 C   0  0  0  0  0  0  0  0  0  0  0  0
   -0.8643   -3.8047    0.0000 C   0  0  0  0  0  0  0  0  0  0  0  0
   -0.5139   -3.0578    0.0000 C   0  0  0  0  0  0  0  0  0  0  0  0
    0.3047   -3.1602    0.0000 C   0  0  0  0  0  0  0  0  0  0  0  0
    0.8687   -2.5581    0.0000 N   0  0  0  0  0  0  0  0  0  0  0  0
    0.6293   -1.7686    0.0000 C   0  0  0  0  0  0  0  0  0  0  0  0
   -0.1741   -1.5812    0.0000 O   0  0  0  0  0  0  0  0  0  0  0  0
    1.1933   -1.1665    0.0000 N   0  0  0  0  0  0  0  0  0  0  0  0
    0.9539   -0.3770    0.0000 C   0  0  0  0  0  0  0  0  0  0  0  0
    0.1505   -0.1896    0.0000 C   0  0  0  0  0  0  0  0  0  0  0  0
   -0.0890    0.5999    0.0000 C   0  0  0  0  0  0  0  0  0  0  0  0
    0.4750    1.2020    0.0000 C   0  0  0  0  0  0  0  0  0  0  0  0
    1.2785    1.0146    0.0000 C   0  0  0  0  0  0  0  0  0  0  0  0
    1.9554    1.4863    0.0000 C   0  0  0  0  0  0  0  0  0  0  0  0
    1.9716    2.3111    0.0000 O   0  0  0  0  0  0  0  0  0  0  0  0
    2.6131    0.9883    0.0000 N   0  0  0  0  0  0  0  0  0  0  0  0
    3.4379    0.9720    0.0000 C   0  0  0  0  0  0  0  0  0  0  0  0
    3.6774    0.1825    0.0000 C   0  0  0  0  0  0  0  0  0  0  0  0
    3.0005   -0.2892    0.0000 C   0  0  0  0  0  0  0  0  0  0  0  0
    2.3427    0.2088    0.0000 C   0  0  0  0  0  0  0  0  0  0  0  0
    1.5179    0.2251    0.0000 C   0  0  0  0  0  0  0  0  0  0  0  0
    0.4603   -3.9704    0.0000 N   0  0  0  0  0  0  0  0  0  0  0  0
   -0.2622   -4.3687    0.0000 N   0  0  0  0  0  0  0  0  0  0  0  0
  1  2  1  0
  2  3  2  0
  3  4  1  0
  4  5  2  0
  5  6  1  0
  7  6  1  0
  7  8  1  0
  8  9  1  0
  5  9  1  0
  9 10  2  0
  2 10  1  0
  7 11  1  6
 11 12  1  0
 12 13  1  0
 13 14  1  0
 14 15  2  0
 15 16  1  0
 16 17  1  0
 17 18  2  0
 17 19  1  0
 19 20  1  0
 20 21  2  0
 21 22  1  0
 22 23  2  0
 23 24  1  0
 24 25  1  0
 25 26  2  0
 25 27  1  0
 27 28  1  0
 28 29  1  0
 29 30  1  0
 31 30  1  1
 31 27  1  0
 31 32  1  0
 20 32  1  0
 24 32  2  0
 15 33  1  0
 33 34  1  0
 13 34  2  0
M  END
>  <pIC50>  (149) 
6.36

>  <chembl_id>  (149) 
CHEMBL336242

>  <canonical_smiles>  (149) 
Clc1ccc2C[C@@H](Cc2c1)NCc3cc(NC(=O)Nc4cccc5C(=O)N6CCC[C@H]6c45)[nH]n3

$$$$
CHEMBL340259
     RDKit          2D

 36 41  0  0  0  0  0  0  0  0999 V2000
    1.6484   -2.1190    0.0000 O   0  0  0  0  0  0  0  0  0  0  0  0
    1.9083   -1.3360    0.0000 C   0  0  0  0  0  0  0  0  0  0  0  0
    2.6946   -1.0861    0.0000 N   0  0  0  0  0  0  0  0  0  0  0  0
    2.6573   -0.3697    0.0000 C   0  0  0  0  0  0  0  0  0  0  0  0
    3.3704    0.2196    0.0000 O   0  0  0  0  0  0  0  0  0  0  0  0
    1.9169   -0.0011    0.0000 C   0  0  0  0  0  0  0  0  0  0  0  0
    1.4277   -0.6654    0.0000 C   0  0  0  0  0  0  0  0  0  0  0  0
    0.6078   -0.5740    0.0000 C   0  0  0  0  0  0  0  0  0  0  0  0
    0.2103    0.2366    0.0000 C   0  0  0  0  0  0  0  0  0  0  0  0
   -0.5412    0.5770    0.0000 N   0  0  0  0  0  0  0  0  0  0  0  0
   -0.4497    1.3969    0.0000 C   0  0  0  0  0  0  0  0  0  0  0  0
    0.3583    1.5633    0.0000 C   0  0  0  0  0  0  0  0  0  0  0  0
    0.9247    2.2663    0.0000 O   0  0  0  0  0  0  0  0  0  0  0  0
    1.7446    2.1748    0.0000 C   0  0  0  0  0  0  0  0  0  0  0  0
    2.2338    2.8391    0.0000 C   0  0  0  0  0  0  0  0  0  0  0  0
    3.0537    2.7476    0.0000 O   0  0  0  0  0  0  0  0  0  0  0  0
    3.5429    3.4120    0.0000 C   0  0  0  0  0  0  0  0  0  0  0  0
    4.3628    3.3205    0.0000 C   0  0  0  0  0  0  0  0  0  0  0  0
    4.6935    2.5647    0.0000 O   0  0  0  0  0  0  0  0  0  0  0  0
    4.2044    1.9003    0.0000 C   0  0  0  0  0  0  0  0  0  0  0  0
    4.5351    1.1445    0.0000 C   0  0  0  0  0  0  0  0  0  0  0  0
    4.0459    0.4802    0.0000 N   0  0  0  0  0  0  0  0  0  0  0  0
    3.2260    0.5717    0.0000 C   0  0  0  0  0  0  0  0  0  0  0  0
    2.7368   -0.0926    0.0000 C   0  0  0  0  0  0  0  0  0  0  0  0
    3.3711   -0.6715    0.0000 C   0  0  0  0  0  0  0  0  0  0  0  0
    3.2796   -1.4914    0.0000 C   0  0  0  0  0  0  0  0  0  0  0  0
    3.9439   -1.9806    0.0000 C   0  0  0  0  0  0  0  0  0  0  0  0
    4.6997   -1.6499    0.0000 C   0  0  0  0  0  0  0  0  0  0  0  0
    4.7912   -0.8300    0.0000 C   0  0  0  0  0  0  0  0  0  0  0  0
    4.1269   -0.3408    0.0000 C   0  0  0  0  0  0  0  0  0  0  0  0
   -0.7105   -0.3640    0.0000 C   0  0  0  0  0  0  0  0  0  0  0  0
   -1.5076   -0.5769    0.0000 C   0  0  0  0  0  0  0  0  0  0  0  0
   -1.7218   -1.3736    0.0000 C   0  0  0  0  0  0  0  0  0  0  0  0
   -1.1389   -1.9574    0.0000 C   0  0  0  0  0  0  0  0  0  0  0  0
   -0.3418   -1.7446    0.0000 C   0  0  0  0  0  0  0  0  0  0  0  0
   -0.1276   -0.9479    0.0000 C   0  0  0  0  0  0  0  0  0  0  0  0
  1  2  2  0
  2  3  1  0
  3  4  1  0
  4  5  2  0
  4  6  1  0
  6  7  2  0
  2  7  1  0
  7  8  1  0
  8  9  2  0
  9 10  1  0
 10 11  1  0
 11 12  1  0
 12 13  1  0
 13 14  1  0
 14 15  1  0
 15 16  1  0
 16 17  1  0
 17 18  1  0
 18 19  1  0
 19 20  1  0
 20 21  1  0
 21 22  1  0
 22 23  1  0
 23 24  2  0
  6 24  1  0
 24 25  1  0
 25 26  2  0
 26 27  1  0
 27 28  2  0
 28 29  1  0
 29 30  2  0
 22 30  1  0
 25 30  1  0
 10 31  1  0
 31 32  2  0
 32 33  1  0
 33 34  2  0
 34 35  1  0
 35 36  2  0
  8 36  1  0
 31 36  1  0
M  END
>  <pIC50>  (150) 
6.00

>  <chembl_id>  (150) 
CHEMBL340259

>  <canonical_smiles>  (150) 
O=C1NC(=O)C2=C1c3cn(CCOCCOCCOCCn4cc2c5ccccc45)c6ccccc36

$$$$
CHEMBL340813
     RDKit          2D

 25 28  0  0  0  0  0  0  0  0999 V2000
    4.0668    5.6479    0.0000 O   0  0  0  0  0  0  0  0  0  0  0  0
    4.0668    4.8229    0.0000 C   0  0  0  0  0  0  0  0  0  0  0  0
    4.7812    4.4104    0.0000 C   0  0  0  0  0  0  0  0  0  0  0  0
    4.7812    3.5854    0.0000 C   0  0  0  0  0  0  0  0  0  0  0  0
    4.0668    3.1729    0.0000 C   0  0  0  0  0  0  0  0  0  0  0  0
    4.0668    2.3479    0.0000 N   0  0  0  0  0  0  0  0  0  0  0  0
    3.3523    1.9354    0.0000 C   0  0  0  0  0  0  0  0  0  0  0  0
    3.3523    1.1104    0.0000 N   0  0  0  0  0  0  0  0  0  0  0  0
    2.6378    0.6979    0.0000 C   0  0  0  0  0  0  0  0  0  0  0  0
    2.6378   -0.1271    0.0000 O   0  0  0  0  0  0  0  0  0  0  0  0
    3.3523   -0.5396    0.0000 C   0  0  0  0  0  0  0  0  0  0  0  0
    3.3523   -1.3646    0.0000 C   0  0  0  0  0  0  0  0  0  0  0  0
    4.0668   -1.7771    0.0000 C   0  0  0  0  0  0  0  0  0  0  0  0
    4.0668   -2.6021    0.0000 C   0  0  0  0  0  0  0  0  0  0  0  0
    3.3523   -3.0146    0.0000 C   0  0  0  0  0  0  0  0  0  0  0  0
    2.6378   -2.6021    0.0000 C   0  0  0  0  0  0  0  0  0  0  0  0
    2.6378   -1.7771    0.0000 C   0  0  0  0  0  0  0  0  0  0  0  0
    1.9233    1.1104    0.0000 C   0  0  0  0  0  0  0  0  0  0  0  0
    1.1387    0.8555    0.0000 N   0  0  0  0  0  0  0  0  0  0  0  0
    0.6538    1.5229    0.0000 C   0  0  0  0  0  0  0  0  0  0  0  0
    1.1387    2.1904    0.0000 N   0  0  0  0  0  0  0  0  0  0  0  0
    1.9233    1.9354    0.0000 C   0  0  0  0  0  0  0  0  0  0  0  0
    2.6378    2.3479    0.0000 N   0  0  0  0  0  0  0  0  0  0  0  0
    3.3523    3.5854    0.0000 C   0  0  0  0  0  0  0  0  0  0  0  0
    3.3523    4.4104    0.0000 C   0  0  0  0  0  0  0  0  0  0  0  0
  1  2  1  0
  2  3  2  0
  3  4  1  0
  4  5  2  0
  5  6  1  0
  6  7  1  0
  7  8  2  0
  8  9  1  0
  9 10  1  0
 10 11  1  0
 11 12  1  0
 12 13  1  0
 13 14  1  0
 14 15  1  0
 15 16  1  0
 16 17  1  0
 12 17  1  0
  9 18  2  0
 18 19  1  0
 19 20  1  0
 20 21  2  0
 21 22  1  0
 18 22  1  0
 22 23  2  0
  7 23  1  0
  5 24  1  0
 24 25  2  0
  2 25  1  0
M  END
>  <pIC50>  (151) 
6.00

>  <chembl_id>  (151) 
CHEMBL340813

>  <canonical_smiles>  (151) 
Oc1ccc(Nc2nc(OCC3CCCCC3)c4nc[nH]c4n2)cc1

$$$$
CHEMBL340935
     RDKit          2D

 36 41  0  0  0  0  0  0  0  0999 V2000
    1.6484   -2.1190    0.0000 O   0  0  0  0  0  0  0  0  0  0  0  0
    1.9083   -1.3360    0.0000 C   0  0  0  0  0  0  0  0  0  0  0  0
    2.6946   -1.0861    0.0000 N   0  0  0  0  0  0  0  0  0  0  0  0
    2.6573   -0.3697    0.0000 C   0  0  0  0  0  0  0  0  0  0  0  0
    3.3704    0.2196    0.0000 O   0  0  0  0  0  0  0  0  0  0  0  0
    1.9169   -0.0011    0.0000 C   0  0  0  0  0  0  0  0  0  0  0  0
    1.4277   -0.6654    0.0000 C   0  0  0  0  0  0  0  0  0  0  0  0
    0.6078   -0.5740    0.0000 C   0  0  0  0  0  0  0  0  0  0  0  0
    0.2103    0.2366    0.0000 C   0  0  0  0  0  0  0  0  0  0  0  0
   -0.5412    0.5770    0.0000 N   0  0  0  0  0  0  0  0  0  0  0  0
   -0.4497    1.3969    0.0000 C   0  0  0  0  0  0  0  0  0  0  0  0
    0.3583    1.5633    0.0000 C   0  0  0  0  0  0  0  0  0  0  0  0
    0.9247    2.2663    0.0000 O   0  0  0  0  0  0  0  0  0  0  0  0
    1.7446    2.1748    0.0000 C   0  0  0  0  0  0  0  0  0  0  0  0
    2.2338    2.8391    0.0000 C   0  0  0  0  0  0  0  0  0  0  0  0
    3.0537    2.7476    0.0000 O   0  0  0  0  0  0  0  0  0  0  0  0
    3.5429    3.4120    0.0000 C   0  0  0  0  0  0  0  0  0  0  0  0
    4.3628    3.3205    0.0000 C   0  0  0  0  0  0  0  0  0  0  0  0
    4.6935    2.5647    0.0000 O   0  0  0  0  0  0  0  0  0  0  0  0
    4.2044    1.9003    0.0000 C   0  0  0  0  0  0  0  0  0  0  0  0
    4.5351    1.1445    0.0000 C   0  0  0  0  0  0  0  0  0  0  0  0
    4.0459    0.4802    0.0000 N   0  0  0  0  0  0  0  0  0  0  0  0
    3.2260    0.5717    0.0000 C   0  0  0  0  0  0  0  0  0  0  0  0
    2.7368   -0.0926    0.0000 C   0  0  0  0  0  0  0  0  0  0  0  0
    3.3711   -0.6715    0.0000 C   0  0  0  0  0  0  0  0  0  0  0  0
    3.2796   -1.4914    0.0000 C   0  0  0  0  0  0  0  0  0  0  0  0
    3.9439   -1.9806    0.0000 C   0  0  0  0  0  0  0  0  0  0  0  0
    4.6997   -1.6499    0.0000 C   0  0  0  0  0  0  0  0  0  0  0  0
    4.7912   -0.8300    0.0000 N   0  0  0  0  0  0  0  0  0  0  0  0
    4.1269   -0.3408    0.0000 C   0  0  0  0  0  0  0  0  0  0  0  0
   -0.7105   -0.3640    0.0000 C   0  0  0  0  0  0  0  0  0  0  0  0
   -1.5076   -0.5769    0.0000 C   0  0  0  0  0  0  0  0  0  0  0  0
   -1.7218   -1.3736    0.0000 C   0  0  0  0  0  0  0  0  0  0  0  0
   -1.1389   -1.9574    0.0000 C   0  0  0  0  0  0  0  0  0  0  0  0
   -0.3418   -1.7446    0.0000 C   0  0  0  0  0  0  0  0  0  0  0  0
   -0.1276   -0.9479    0.0000 C   0  0  0  0  0  0  0  0  0  0  0  0
  1  2  2  0
  2  3  1  0
  3  4  1  0
  4  5  2  0
  4  6  1  0
  6  7  2  0
  2  7  1  0
  7  8  1  0
  8  9  2  0
  9 10  1  0
 10 11  1  0
 11 12  1  0
 12 13  1  0
 13 14  1  0
 14 15  1  0
 15 16  1  0
 16 17  1  0
 17 18  1  0
 18 19  1  0
 19 20  1  0
 20 21  1  0
 21 22  1  0
 22 23  1  0
 23 24  2  0
  6 24  1  0
 24 25  1  0
 25 26  2  0
 26 27  1  0
 27 28  2  0
 28 29  1  0
 29 30  2  0
 22 30  1  0
 25 30  1  0
 10 31  1  0
 31 32  2  0
 32 33  1  0
 33 34  2  0
 34 35  1  0
 35 36  2  0
  8 36  1  0
 31 36  1  0
M  END
>  <pIC50>  (152) 
5.61

>  <chembl_id>  (152) 
CHEMBL340935

>  <canonical_smiles>  (152) 
O=C1NC(=O)C2=C1c3cn(CCOCCOCCOCCn4cc2c5cccnc45)c6ccccc36

$$$$
CHEMBL3421636
     RDKit          2D

 29 33  0  0  0  0  0  0  0  0999 V2000
   -2.7697   -8.7700    0.0000 C   0  0  0  0  0  0  0  0  0  0  0  0
   -2.5147   -7.9854    0.0000 N   0  0  0  0  0  0  0  0  0  0  0  0
   -3.0668   -7.3723    0.0000 C   0  0  0  0  0  0  0  0  0  0  0  0
   -2.8118   -6.5877    0.0000 C   0  0  0  0  0  0  0  0  0  0  0  0
   -2.0049   -6.4162    0.0000 N   0  0  0  0  0  0  0  0  0  0  0  0
   -1.4528   -7.0293    0.0000 C   0  0  0  0  0  0  0  0  0  0  0  0
   -1.7078   -7.8139    0.0000 C   0  0  0  0  0  0  0  0  0  0  0  0
   -1.7499   -5.6315    0.0000 C   0  0  0  0  0  0  0  0  0  0  0  0
   -2.3020   -5.0184    0.0000 C   0  0  0  0  0  0  0  0  0  0  0  0
   -2.0470   -4.2338    0.0000 C   0  0  0  0  0  0  0  0  0  0  0  0
   -1.2400   -4.0623    0.0000 C   0  0  0  0  0  0  0  0  0  0  0  0
   -0.9851   -3.2777    0.0000 N   0  0  0  0  0  0  0  0  0  0  0  0
   -0.1781   -3.1062    0.0000 C   0  0  0  0  0  0  0  0  0  0  0  0
    0.0768   -2.3215    0.0000 C   0  0  0  0  0  0  0  0  0  0  0  0
    0.8838   -2.1500    0.0000 C   0  0  0  0  0  0  0  0  0  0  0  0
    1.4358   -2.7631    0.0000 N   0  0  0  0  0  0  0  0  0  0  0  0
    1.1809   -3.5477    0.0000 C   0  0  0  0  0  0  0  0  0  0  0  0
    0.3739   -3.7192    0.0000 N   0  0  0  0  0  0  0  0  0  0  0  0
    1.1387   -1.3654    0.0000 C   0  0  0  0  0  0  0  0  0  0  0  0
    0.6538   -0.6979    0.0000 C   0  0  0  0  0  0  0  0  0  0  0  0
    1.1387   -0.0305    0.0000 N   0  0  0  0  0  0  0  0  0  0  0  0
    1.9233   -0.2854    0.0000 C   0  0  0  0  0  0  0  0  0  0  0  0
    2.6378    0.1271    0.0000 C   0  0  0  0  0  0  0  0  0  0  0  0
    3.3523   -0.2854    0.0000 C   0  0  0  0  0  0  0  0  0  0  0  0
    3.3523   -1.1104    0.0000 C   0  0  0  0  0  0  0  0  0  0  0  0
    2.6378   -1.5229    0.0000 C   0  0  0  0  0  0  0  0  0  0  0  0
    1.9233   -1.1104    0.0000 C   0  0  0  0  0  0  0  0  0  0  0  0
   -0.6880   -4.6754    0.0000 C   0  0  0  0  0  0  0  0  0  0  0  0
   -0.9429   -5.4600    0.0000 C   0  0  0  0  0  0  0  0  0  0  0  0
  1  2  1  0
  2  3  1  0
  3  4  1  0
  4  5  1  0
  5  6  1  0
  6  7  1  0
  2  7  1  0
  5  8  1  0
  8  9  2  0
  9 10  1  0
 10 11  2  0
 11 12  1  0
 12 13  1  0
 13 14  2  0
 14 15  1  0
 15 16  2  0
 16 17  1  0
 17 18  2  0
 13 18  1  0
 15 19  1  0
 19 20  2  0
 20 21  1  0
 21 22  1  0
 22 23  2  0
 23 24  1  0
 24 25  2  0
 25 26  1  0
 26 27  2  0
 19 27  1  0
 22 27  1  0
 11 28  1  0
 28 29  2  0
  8 29  1  0
M  END
>  <pIC50>  (153) 
4.48

>  <chembl_id>  (153) 
CHEMBL3421636

>  <canonical_smiles>  (153) 
CN1CCN(CC1)c2ccc(Nc3cc(ncn3)c4c[nH]c5ccccc45)cc2

$$$$
CHEMBL3421962
     RDKit          2D

 29 33  0  0  0  0  0  0  0  0999 V2000
   -2.7697   -8.7700    0.0000 C   0  0  0  0  0  0  0  0  0  0  0  0
   -2.5147   -7.9854    0.0000 N   0  0  0  0  0  0  0  0  0  0  0  0
   -3.0668   -7.3723    0.0000 C   0  0  0  0  0  0  0  0  0  0  0  0
   -2.8118   -6.5877    0.0000 C   0  0  0  0  0  0  0  0  0  0  0  0
   -2.0049   -6.4162    0.0000 N   0  0  0  0  0  0  0  0  0  0  0  0
   -1.4528   -7.0293    0.0000 C   0  0  0  0  0  0  0  0  0  0  0  0
   -1.7078   -7.8139    0.0000 C   0  0  0  0  0  0  0  0  0  0  0  0
   -1.7499   -5.6315    0.0000 C   0  0  0  0  0  0  0  0  0  0  0  0
   -2.3020   -5.0184    0.0000 C   0  0  0  0  0  0  0  0  0  0  0  0
   -2.0470   -4.2338    0.0000 C   0  0  0  0  0  0  0  0  0  0  0  0
   -1.2400   -4.0623    0.0000 C   0  0  0  0  0  0  0  0  0  0  0  0
   -0.9851   -3.2777    0.0000 N   0  0  0  0  0  0  0  0  0  0  0  0
   -0.1781   -3.1062    0.0000 C   0  0  0  0  0  0  0  0  0  0  0  0
    0.0768   -2.3215    0.0000 C   0  0  0  0  0  0  0  0  0  0  0  0
    0.8838   -2.1500    0.0000 C   0  0  0  0  0  0  0  0  0  0  0  0
    1.4358   -2.7631    0.0000 N   0  0  0  0  0  0  0  0  0  0  0  0
    1.1809   -3.5477    0.0000 C   0  0  0  0  0  0  0  0  0  0  0  0
    0.3739   -3.7192    0.0000 N   0  0  0  0  0  0  0  0  0  0  0  0
    1.1387   -1.3654    0.0000 C   0  0  0  0  0  0  0  0  0  0  0  0
    0.6538   -0.6979    0.0000 C   0  0  0  0  0  0  0  0  0  0  0  0
    1.1387   -0.0305    0.0000 N   0  0  0  0  0  0  0  0  0  0  0  0
    1.9233   -0.2854    0.0000 C   0  0  0  0  0  0  0  0  0  0  0  0
    2.6378    0.1271    0.0000 C   0  0  0  0  0  0  0  0  0  0  0  0
    3.3523   -0.2854    0.0000 N   0  0  0  0  0  0  0  0  0  0  0  0
    3.3523   -1.1104    0.0000 C   0  0  0  0  0  0  0  0  0  0  0  0
    2.6378   -1.5229    0.0000 C   0  0  0  0  0  0  0  0  0  0  0  0
    1.9233   -1.1104    0.0000 C   0  0  0  0  0  0  0  0  0  0  0  0
   -0.6880   -4.6754    0.0000 C   0  0  0  0  0  0  0  0  0  0  0  0
   -0.9429   -5.4600    0.0000 C   0  0  0  0  0  0  0  0  0  0  0  0
  1  2  1  0
  2  3  1  0
  3  4  1  0
  4  5  1  0
  5  6  1  0
  6  7  1  0
  2  7  1  0
  5  8  1  0
  8  9  2  0
  9 10  1  0
 10 11  2  0
 11 12  1  0
 12 13  1  0
 13 14  2  0
 14 15  1  0
 15 16  2  0
 16 17  1  0
 17 18  2  0
 13 18  1  0
 15 19  1  0
 19 20  2  0
 20 21  1  0
 21 22  1  0
 22 23  2  0
 23 24  1  0
 24 25  2  0
 25 26  1  0
 26 27  2  0
 19 27  1  0
 22 27  1  0
 11 28  1  0
 28 29  2  0
  8 29  1  0
M  END
>  <pIC50>  (154) 
6.24

>  <chembl_id>  (154) 
CHEMBL3421962

>  <canonical_smiles>  (154) 
CN1CCN(CC1)c2ccc(Nc3cc(ncn3)c4c[nH]c5cnccc45)cc2

$$$$
CHEMBL3421963
     RDKit          2D

 31 35  0  0  0  0  0  0  0  0999 V2000
    0.6710   -5.1170    0.0000 C   0  0  0  0  0  0  0  0  0  0  0  0
    0.1190   -4.5039    0.0000 O   0  0  0  0  0  0  0  0  0  0  0  0
   -0.6880   -4.6754    0.0000 C   0  0  0  0  0  0  0  0  0  0  0  0
   -0.9429   -5.4600    0.0000 C   0  0  0  0  0  0  0  0  0  0  0  0
   -1.7499   -5.6315    0.0000 C   0  0  0  0  0  0  0  0  0  0  0  0
   -2.3020   -5.0184    0.0000 C   0  0  0  0  0  0  0  0  0  0  0  0
   -2.0470   -4.2338    0.0000 C   0  0  0  0  0  0  0  0  0  0  0  0
   -1.2400   -4.0623    0.0000 C   0  0  0  0  0  0  0  0  0  0  0  0
   -0.9851   -3.2777    0.0000 N   0  0  0  0  0  0  0  0  0  0  0  0
   -0.1781   -3.1062    0.0000 C   0  0  0  0  0  0  0  0  0  0  0  0
    0.0768   -2.3215    0.0000 C   0  0  0  0  0  0  0  0  0  0  0  0
    0.8838   -2.1500    0.0000 C   0  0  0  0  0  0  0  0  0  0  0  0
    1.4358   -2.7631    0.0000 N   0  0  0  0  0  0  0  0  0  0  0  0
    1.1809   -3.5477    0.0000 C   0  0  0  0  0  0  0  0  0  0  0  0
    0.3739   -3.7192    0.0000 N   0  0  0  0  0  0  0  0  0  0  0  0
    1.1387   -1.3654    0.0000 C   0  0  0  0  0  0  0  0  0  0  0  0
    0.6538   -0.6979    0.0000 C   0  0  0  0  0  0  0  0  0  0  0  0
    1.1387   -0.0305    0.0000 N   0  0  0  0  0  0  0  0  0  0  0  0
    1.9233   -0.2854    0.0000 C   0  0  0  0  0  0  0  0  0  0  0  0
    2.6378    0.1271    0.0000 C   0  0  0  0  0  0  0  0  0  0  0  0
    3.3523   -0.2854    0.0000 N   0  0  0  0  0  0  0  0  0  0  0  0
    3.3523   -1.1104    0.0000 C   0  0  0  0  0  0  0  0  0  0  0  0
    2.6378   -1.5229    0.0000 C   0  0  0  0  0  0  0  0  0  0  0  0
    1.9233   -1.1104    0.0000 C   0  0  0  0  0  0  0  0  0  0  0  0
   -2.0049   -6.4162    0.0000 N   0  0  0  0  0  0  0  0  0  0  0  0
   -1.4528   -7.0293    0.0000 C   0  0  0  0  0  0  0  0  0  0  0  0
   -1.7078   -7.8139    0.0000 C   0  0  0  0  0  0  0  0  0  0  0  0
   -2.5147   -7.9854    0.0000 N   0  0  0  0  0  0  0  0  0  0  0  0
   -2.7697   -8.7700    0.0000 C   0  0  0  0  0  0  0  0  0  0  0  0
   -3.0668   -7.3723    0.0000 C   0  0  0  0  0  0  0  0  0  0  0  0
   -2.8118   -6.5877    0.0000 C   0  0  0  0  0  0  0  0  0  0  0  0
  1  2  1  0
  2  3  1  0
  3  4  2  0
  4  5  1  0
  5  6  2  0
  6  7  1  0
  7  8  2  0
  3  8  1  0
  8  9  1  0
  9 10  1  0
 10 11  2  0
 11 12  1  0
 12 13  2  0
 13 14  1  0
 14 15  2  0
 10 15  1  0
 12 16  1  0
 16 17  2  0
 17 18  1  0
 18 19  1  0
 19 20  2  0
 20 21  1  0
 21 22  2  0
 22 23  1  0
 23 24  2  0
 16 24  1  0
 19 24  1  0
  5 25  1  0
 25 26  1  0
 26 27  1  0
 27 28  1  0
 28 29  1  0
 28 30  1  0
 30 31  1  0
 25 31  1  0
M  END
>  <pIC50>  (155) 
4.91

>  <chembl_id>  (155) 
CHEMBL3421963

>  <canonical_smiles>  (155) 
COc1cc(ccc1Nc2cc(ncn2)c3c[nH]c4cnccc34)N5CCN(C)CC5

$$$$
CHEMBL3421964
     RDKit          2D

 33 37  0  0  0  0  0  0  0  0999 V2000
    0.6710   -5.1170    0.0000 C   0  0  0  0  0  0  0  0  0  0  0  0
    0.1190   -4.5039    0.0000 O   0  0  0  0  0  0  0  0  0  0  0  0
   -0.6880   -4.6754    0.0000 C   0  0  0  0  0  0  0  0  0  0  0  0
   -0.9429   -5.4600    0.0000 C   0  0  0  0  0  0  0  0  0  0  0  0
   -1.7499   -5.6315    0.0000 C   0  0  0  0  0  0  0  0  0  0  0  0
   -2.3020   -5.0184    0.0000 C   0  0  0  0  0  0  0  0  0  0  0  0
   -2.0470   -4.2338    0.0000 C   0  0  0  0  0  0  0  0  0  0  0  0
   -1.2400   -4.0623    0.0000 C   0  0  0  0  0  0  0  0  0  0  0  0
   -0.9851   -3.2777    0.0000 N   0  0  0  0  0  0  0  0  0  0  0  0
   -0.1781   -3.1062    0.0000 C   0  0  0  0  0  0  0  0  0  0  0  0
    0.0768   -2.3215    0.0000 C   0  0  0  0  0  0  0  0  0  0  0  0
    0.8838   -2.1500    0.0000 C   0  0  0  0  0  0  0  0  0  0  0  0
    1.4358   -2.7631    0.0000 N   0  0  0  0  0  0  0  0  0  0  0  0
    1.1809   -3.5477    0.0000 C   0  0  0  0  0  0  0  0  0  0  0  0
    0.3739   -3.7192    0.0000 N   0  0  0  0  0  0  0  0  0  0  0  0
    1.1387   -1.3654    0.0000 C   0  0  0  0  0  0  0  0  0  0  0  0
    0.6538   -0.6979    0.0000 C   0  0  0  0  0  0  0  0  0  0  0  0
    1.1387   -0.0305    0.0000 N   0  0  0  0  0  0  0  0  0  0  0  0
    1.9233   -0.2854    0.0000 C   0  0  0  0  0  0  0  0  0  0  0  0
    2.6378    0.1271    0.0000 C   0  0  0  0  0  0  0  0  0  0  0  0
    3.3523   -0.2854    0.0000 N   0  0  0  0  0  0  0  0  0  0  0  0
    3.3523   -1.1104    0.0000 C   0  0  0  0  0  0  0  0  0  0  0  0
    2.6378   -1.5229    0.0000 C   0  0  0  0  0  0  0  0  0  0  0  0
    1.9233   -1.1104    0.0000 C   0  0  0  0  0  0  0  0  0  0  0  0
   -2.0049   -6.4162    0.0000 N   0  0  0  0  0  0  0  0  0  0  0  0
   -1.4528   -7.0293    0.0000 C   0  0  0  0  0  0  0  0  0  0  0  0
   -1.7078   -7.8139    0.0000 C   0  0  0  0  0  0  0  0  0  0  0  0
   -2.5147   -7.9854    0.0000 N   0  0  0  0  0  0  0  0  0  0  0  0
   -3.0668   -7.3723    0.0000 C   0  0  0  0  0  0  0  0  0  0  0  0
   -2.8118   -6.5877    0.0000 C   0  0  0  0  0  0  0  0  0  0  0  0
   -2.7697   -8.7700    0.0000 C   0  0  0  0  0  0  0  0  0  0  0  0
   -2.2176   -9.3831    0.0000 O   0  0  0  0  0  0  0  0  0  0  0  0
   -3.5766   -8.9416    0.0000 C   0  0  0  0  0  0  0  0  0  0  0  0
  1  2  1  0
  2  3  1  0
  3  4  2  0
  4  5  1  0
  5  6  2  0
  6  7  1  0
  7  8  2  0
  3  8  1  0
  8  9  1  0
  9 10  1  0
 10 11  2  0
 11 12  1  0
 12 13  2  0
 13 14  1  0
 14 15  2  0
 10 15  1  0
 12 16  1  0
 16 17  2  0
 17 18  1  0
 18 19  1  0
 19 20  2  0
 20 21  1  0
 21 22  2  0
 22 23  1  0
 23 24  2  0
 16 24  1  0
 19 24  1  0
  5 25  1  0
 25 26  1  0
 26 27  1  0
 27 28  1  0
 28 29  1  0
 29 30  1  0
 25 30  1  0
 28 31  1  0
 31 32  2  0
 31 33  1  0
M  END
>  <pIC50>  (156) 
4.85

>  <chembl_id>  (156) 
CHEMBL3421964

>  <canonical_smiles>  (156) 
COc1cc(ccc1Nc2cc(ncn2)c3c[nH]c4cnccc34)N5CCN(CC5)C(=O)C

$$$$
CHEMBL3421965
     RDKit          2D

 34 38  0  0  0  0  0  0  0  0999 V2000
    0.6710   -5.1170    0.0000 C   0  0  0  0  0  0  0  0  0  0  0  0
    0.1190   -4.5039    0.0000 O   0  0  0  0  0  0  0  0  0  0  0  0
   -0.6880   -4.6754    0.0000 C   0  0  0  0  0  0  0  0  0  0  0  0
   -0.9429   -5.4600    0.0000 C   0  0  0  0  0  0  0  0  0  0  0  0
   -1.7499   -5.6315    0.0000 C   0  0  0  0  0  0  0  0  0  0  0  0
   -2.3020   -5.0184    0.0000 C   0  0  0  0  0  0  0  0  0  0  0  0
   -2.0470   -4.2338    0.0000 C   0  0  0  0  0  0  0  0  0  0  0  0
   -1.2400   -4.0623    0.0000 C   0  0  0  0  0  0  0  0  0  0  0  0
   -0.9851   -3.2777    0.0000 N   0  0  0  0  0  0  0  0  0  0  0  0
   -0.1781   -3.1062    0.0000 C   0  0  0  0  0  0  0  0  0  0  0  0
    0.0768   -2.3215    0.0000 C   0  0  0  0  0  0  0  0  0  0  0  0
    0.8838   -2.1500    0.0000 C   0  0  0  0  0  0  0  0  0  0  0  0
    1.4358   -2.7631    0.0000 N   0  0  0  0  0  0  0  0  0  0  0  0
    1.1809   -3.5477    0.0000 C   0  0  0  0  0  0  0  0  0  0  0  0
    0.3739   -3.7192    0.0000 N   0  0  0  0  0  0  0  0  0  0  0  0
    1.1387   -1.3654    0.0000 C   0  0  0  0  0  0  0  0  0  0  0  0
    0.6538   -0.6979    0.0000 C   0  0  0  0  0  0  0  0  0  0  0  0
    1.1387   -0.0305    0.0000 N   0  0  0  0  0  0  0  0  0  0  0  0
    0.8838    0.7541    0.0000 C   0  0  0  0  0  0  0  0  0  0  0  0
    1.9233   -0.2854    0.0000 C   0  0  0  0  0  0  0  0  0  0  0  0
    2.6378    0.1271    0.0000 C   0  0  0  0  0  0  0  0  0  0  0  0
    3.3523   -0.2854    0.0000 N   0  0  0  0  0  0  0  0  0  0  0  0
    3.3523   -1.1104    0.0000 C   0  0  0  0  0  0  0  0  0  0  0  0
    2.6378   -1.5229    0.0000 C   0  0  0  0  0  0  0  0  0  0  0  0
    1.9233   -1.1104    0.0000 C   0  0  0  0  0  0  0  0  0  0  0  0
   -2.0049   -6.4162    0.0000 N   0  0  0  0  0  0  0  0  0  0  0  0
   -1.4528   -7.0293    0.0000 C   0  0  0  0  0  0  0  0  0  0  0  0
   -1.7078   -7.8139    0.0000 C   0  0  0  0  0  0  0  0  0  0  0  0
   -2.5147   -7.9854    0.0000 N   0  0  0  0  0  0  0  0  0  0  0  0
   -3.0668   -7.3723    0.0000 C   0  0  0  0  0  0  0  0  0  0  0  0
   -2.8118   -6.5877    0.0000 C   0  0  0  0  0  0  0  0  0  0  0  0
   -2.7697   -8.7700    0.0000 C   0  0  0  0  0  0  0  0  0  0  0  0
   -2.2176   -9.3831    0.0000 O   0  0  0  0  0  0  0  0  0  0  0  0
   -3.5766   -8.9416    0.0000 C   0  0  0  0  0  0  0  0  0  0  0  0
  1  2  1  0
  2  3  1  0
  3  4  2  0
  4  5  1  0
  5  6  2  0
  6  7  1  0
  7  8  2  0
  3  8  1  0
  8  9  1  0
  9 10  1  0
 10 11  2  0
 11 12  1  0
 12 13  2  0
 13 14  1  0
 14 15  2  0
 10 15  1  0
 12 16  1  0
 16 17  2  0
 17 18  1  0
 18 19  1  0
 18 20  1  0
 20 21  2  0
 21 22  1  0
 22 23  2  0
 23 24  1  0
 24 25  2  0
 16 25  1  0
 20 25  1  0
  5 26  1  0
 26 27  1  0
 27 28  1  0
 28 29  1  0
 29 30  1  0
 30 31  1  0
 26 31  1  0
 29 32  1  0
 32 33  2  0
 32 34  1  0
M  END
>  <pIC50>  (157) 
4.83

>  <chembl_id>  (157) 
CHEMBL3421965

>  <canonical_smiles>  (157) 
COc1cc(ccc1Nc2cc(ncn2)c3cn(C)c4cnccc34)N5CCN(CC5)C(=O)C

$$$$
CHEMBL3421966
     RDKit          2D

 33 37  0  0  0  0  0  0  0  0999 V2000
    3.3890   -6.0001    0.0000 C   0  0  0  0  0  0  0  0  0  0  0  0
    2.8370   -5.3870    0.0000 O   0  0  0  0  0  0  0  0  0  0  0  0
    3.0919   -4.6024    0.0000 C   0  0  0  0  0  0  0  0  0  0  0  0
    3.8989   -4.4309    0.0000 C   0  0  0  0  0  0  0  0  0  0  0  0
    4.1538   -3.6462    0.0000 C   0  0  0  0  0  0  0  0  0  0  0  0
    3.6018   -3.0331    0.0000 C   0  0  0  0  0  0  0  0  0  0  0  0
    2.7948   -3.2047    0.0000 C   0  0  0  0  0  0  0  0  0  0  0  0
    2.5399   -3.9893    0.0000 C   0  0  0  0  0  0  0  0  0  0  0  0
    1.7329   -4.1608    0.0000 N   0  0  0  0  0  0  0  0  0  0  0  0
    1.1809   -3.5477    0.0000 C   0  0  0  0  0  0  0  0  0  0  0  0
    0.3739   -3.7192    0.0000 N   0  0  0  0  0  0  0  0  0  0  0  0
   -0.1781   -3.1062    0.0000 C   0  0  0  0  0  0  0  0  0  0  0  0
    0.0768   -2.3215    0.0000 C   0  0  0  0  0  0  0  0  0  0  0  0
    0.8838   -2.1500    0.0000 C   0  0  0  0  0  0  0  0  0  0  0  0
    1.4358   -2.7631    0.0000 N   0  0  0  0  0  0  0  0  0  0  0  0
    1.1387   -1.3654    0.0000 C   0  0  0  0  0  0  0  0  0  0  0  0
    0.6538   -0.6979    0.0000 C   0  0  0  0  0  0  0  0  0  0  0  0
    1.1387   -0.0305    0.0000 N   0  0  0  0  0  0  0  0  0  0  0  0
    1.9233   -0.2854    0.0000 C   0  0  0  0  0  0  0  0  0  0  0  0
    2.6378    0.1271    0.0000 C   0  0  0  0  0  0  0  0  0  0  0  0
    3.3523   -0.2854    0.0000 N   0  0  0  0  0  0  0  0  0  0  0  0
    3.3523   -1.1104    0.0000 C   0  0  0  0  0  0  0  0  0  0  0  0
    2.6378   -1.5229    0.0000 C   0  0  0  0  0  0  0  0  0  0  0  0
    1.9233   -1.1104    0.0000 C   0  0  0  0  0  0  0  0  0  0  0  0
    4.9608   -3.4747    0.0000 N   0  0  0  0  0  0  0  0  0  0  0  0
    5.2157   -2.6901    0.0000 C   0  0  0  0  0  0  0  0  0  0  0  0
    6.0227   -2.5186    0.0000 C   0  0  0  0  0  0  0  0  0  0  0  0
    6.5747   -3.1317    0.0000 N   0  0  0  0  0  0  0  0  0  0  0  0
    6.3198   -3.9163    0.0000 C   0  0  0  0  0  0  0  0  0  0  0  0
    5.5128   -4.0878    0.0000 C   0  0  0  0  0  0  0  0  0  0  0  0
    7.3817   -2.9601    0.0000 C   0  0  0  0  0  0  0  0  0  0  0  0
    7.6366   -2.1755    0.0000 O   0  0  0  0  0  0  0  0  0  0  0  0
    7.9337   -3.5732    0.0000 C   0  0  0  0  0  0  0  0  0  0  0  0
  1  2  1  0
  2  3  1  0
  3  4  2  0
  4  5  1  0
  5  6  2  0
  6  7  1  0
  7  8  2  0
  3  8  1  0
  8  9  1  0
  9 10  1  0
 10 11  2  0
 11 12  1  0
 12 13  2  0
 13 14  1  0
 14 15  2  0
 10 15  1  0
 14 16  1  0
 16 17  2  0
 17 18  1  0
 18 19  1  0
 19 20  2  0
 20 21  1  0
 21 22  2  0
 22 23  1  0
 23 24  2  0
 16 24  1  0
 19 24  1  0
  5 25  1  0
 25 26  1  0
 26 27  1  0
 27 28  1  0
 28 29  1  0
 29 30  1  0
 25 30  1  0
 28 31  1  0
 31 32  2  0
 31 33  1  0
M  END
>  <pIC50>  (158) 
5.70

>  <chembl_id>  (158) 
CHEMBL3421966

>  <canonical_smiles>  (158) 
COc1cc(ccc1Nc2nccc(n2)c3c[nH]c4cnccc34)N5CCN(CC5)C(=O)C

$$$$
CHEMBL3421967
     RDKit          2D

 31 35  0  0  0  0  0  0  0  0999 V2000
    3.3890   -6.0001    0.0000 C   0  0  0  0  0  0  0  0  0  0  0  0
    2.8370   -5.3870    0.0000 O   0  0  0  0  0  0  0  0  0  0  0  0
    3.0919   -4.6024    0.0000 C   0  0  0  0  0  0  0  0  0  0  0  0
    3.8989   -4.4309    0.0000 C   0  0  0  0  0  0  0  0  0  0  0  0
    4.1538   -3.6462    0.0000 C   0  0  0  0  0  0  0  0  0  0  0  0
    3.6018   -3.0331    0.0000 C   0  0  0  0  0  0  0  0  0  0  0  0
    2.7948   -3.2047    0.0000 C   0  0  0  0  0  0  0  0  0  0  0  0
    2.5399   -3.9893    0.0000 C   0  0  0  0  0  0  0  0  0  0  0  0
    1.7329   -4.1608    0.0000 N   0  0  0  0  0  0  0  0  0  0  0  0
    1.1809   -3.5477    0.0000 C   0  0  0  0  0  0  0  0  0  0  0  0
    0.3739   -3.7192    0.0000 N   0  0  0  0  0  0  0  0  0  0  0  0
   -0.1781   -3.1062    0.0000 C   0  0  0  0  0  0  0  0  0  0  0  0
    0.0768   -2.3215    0.0000 C   0  0  0  0  0  0  0  0  0  0  0  0
    0.8838   -2.1500    0.0000 C   0  0  0  0  0  0  0  0  0  0  0  0
    1.4358   -2.7631    0.0000 N   0  0  0  0  0  0  0  0  0  0  0  0
    1.1387   -1.3654    0.0000 C   0  0  0  0  0  0  0  0  0  0  0  0
    0.6538   -0.6979    0.0000 C   0  0  0  0  0  0  0  0  0  0  0  0
    1.1387   -0.0305    0.0000 N   0  0  0  0  0  0  0  0  0  0  0  0
    1.9233   -0.2854    0.0000 C   0  0  0  0  0  0  0  0  0  0  0  0
    2.6378    0.1271    0.0000 C   0  0  0  0  0  0  0  0  0  0  0  0
    3.3523   -0.2854    0.0000 N   0  0  0  0  0  0  0  0  0  0  0  0
    3.3523   -1.1104    0.0000 C   0  0  0  0  0  0  0  0  0  0  0  0
    2.6378   -1.5229    0.0000 C   0  0  0  0  0  0  0  0  0  0  0  0
    1.9233   -1.1104    0.0000 C   0  0  0  0  0  0  0  0  0  0  0  0
    4.9608   -3.4747    0.0000 N   0  0  0  0  0  0  0  0  0  0  0  0
    5.2157   -2.6901    0.0000 C   0  0  0  0  0  0  0  0  0  0  0  0
    6.0227   -2.5186    0.0000 C   0  0  0  0  0  0  0  0  0  0  0  0
    6.5747   -3.1317    0.0000 N   0  0  0  0  0  0  0  0  0  0  0  0
    7.3817   -2.9601    0.0000 C   0  0  0  0  0  0  0  0  0  0  0  0
    6.3198   -3.9163    0.0000 C   0  0  0  0  0  0  0  0  0  0  0  0
    5.5128   -4.0878    0.0000 C   0  0  0  0  0  0  0  0  0  0  0  0
  1  2  1  0
  2  3  1  0
  3  4  2  0
  4  5  1  0
  5  6  2  0
  6  7  1  0
  7  8  2  0
  3  8  1  0
  8  9  1  0
  9 10  1  0
 10 11  2  0
 11 12  1  0
 12 13  2  0
 13 14  1  0
 14 15  2  0
 10 15  1  0
 14 16  1  0
 16 17  2  0
 17 18  1  0
 18 19  1  0
 19 20  2  0
 20 21  1  0
 21 22  2  0
 22 23  1  0
 23 24  2  0
 16 24  1  0
 19 24  1  0
  5 25  1  0
 25 26  1  0
 26 27  1  0
 27 28  1  0
 28 29  1  0
 28 30  1  0
 30 31  1  0
 25 31  1  0
M  END
>  <pIC50>  (159) 
5.74

>  <chembl_id>  (159) 
CHEMBL3421967

>  <canonical_smiles>  (159) 
COc1cc(ccc1Nc2nccc(n2)c3c[nH]c4cnccc34)N5CCN(C)CC5

$$$$
CHEMBL3421968
     RDKit          2D

 32 36  0  0  0  0  0  0  0  0999 V2000
    3.3890   -6.0001    0.0000 C   0  0  0  0  0  0  0  0  0  0  0  0
    2.8370   -5.3870    0.0000 O   0  0  0  0  0  0  0  0  0  0  0  0
    3.0919   -4.6024    0.0000 C   0  0  0  0  0  0  0  0  0  0  0  0
    3.8989   -4.4309    0.0000 C   0  0  0  0  0  0  0  0  0  0  0  0
    4.1538   -3.6462    0.0000 C   0  0  0  0  0  0  0  0  0  0  0  0
    3.6018   -3.0331    0.0000 C   0  0  0  0  0  0  0  0  0  0  0  0
    2.7948   -3.2047    0.0000 C   0  0  0  0  0  0  0  0  0  0  0  0
    2.5399   -3.9893    0.0000 C   0  0  0  0  0  0  0  0  0  0  0  0
    1.7329   -4.1608    0.0000 N   0  0  0  0  0  0  0  0  0  0  0  0
    1.1809   -3.5477    0.0000 C   0  0  0  0  0  0  0  0  0  0  0  0
    0.3739   -3.7192    0.0000 N   0  0  0  0  0  0  0  0  0  0  0  0
   -0.1781   -3.1062    0.0000 C   0  0  0  0  0  0  0  0  0  0  0  0
    0.0768   -2.3215    0.0000 C   0  0  0  0  0  0  0  0  0  0  0  0
    0.8838   -2.1500    0.0000 C   0  0  0  0  0  0  0  0  0  0  0  0
    1.4358   -2.7631    0.0000 N   0  0  0  0  0  0  0  0  0  0  0  0
    1.1387   -1.3654    0.0000 C   0  0  0  0  0  0  0  0  0  0  0  0
    0.6538   -0.6979    0.0000 C   0  0  0  0  0  0  0  0  0  0  0  0
    1.1387   -0.0305    0.0000 N   0  0  0  0  0  0  0  0  0  0  0  0
    0.8838    0.7541    0.0000 C   0  0  0  0  0  0  0  0  0  0  0  0
    1.9233   -0.2854    0.0000 C   0  0  0  0  0  0  0  0  0  0  0  0
    2.6378    0.1271    0.0000 C   0  0  0  0  0  0  0  0  0  0  0  0
    3.3523   -0.2854    0.0000 N   0  0  0  0  0  0  0  0  0  0  0  0
    3.3523   -1.1104    0.0000 C   0  0  0  0  0  0  0  0  0  0  0  0
    2.6378   -1.5229    0.0000 C   0  0  0  0  0  0  0  0  0  0  0  0
    1.9233   -1.1104    0.0000 C   0  0  0  0  0  0  0  0  0  0  0  0
    4.9608   -3.4747    0.0000 N   0  0  0  0  0  0  0  0  0  0  0  0
    5.2157   -2.6901    0.0000 C   0  0  0  0  0  0  0  0  0  0  0  0
    6.0227   -2.5186    0.0000 C   0  0  0  0  0  0  0  0  0  0  0  0
    6.5747   -3.1317    0.0000 N   0  0  0  0  0  0  0  0  0  0  0  0
    7.3817   -2.9601    0.0000 C   0  0  0  0  0  0  0  0  0  0  0  0
    6.3198   -3.9163    0.0000 C   0  0  0  0  0  0  0  0  0  0  0  0
    5.5128   -4.0878    0.0000 C   0  0  0  0  0  0  0  0  0  0  0  0
  1  2  1  0
  2  3  1  0
  3  4  2  0
  4  5  1  0
  5  6  2  0
  6  7  1  0
  7  8  2  0
  3  8  1  0
  8  9  1  0
  9 10  1  0
 10 11  2  0
 11 12  1  0
 12 13  2  0
 13 14  1  0
 14 15  2  0
 10 15  1  0
 14 16  1  0
 16 17  2  0
 17 18  1  0
 18 19  1  0
 18 20  1  0
 20 21  2  0
 21 22  1  0
 22 23  2  0
 23 24  1  0
 24 25  2  0
 16 25  1  0
 20 25  1  0
  5 26  1  0
 26 27  1  0
 27 28  1  0
 28 29  1  0
 29 30  1  0
 29 31  1  0
 31 32  1  0
 26 32  1  0
M  END
>  <pIC50>  (160) 
5.35

>  <chembl_id>  (160) 
CHEMBL3421968

>  <canonical_smiles>  (160) 
COc1cc(ccc1Nc2nccc(n2)c3cn(C)c4cnccc34)N5CCN(C)CC5

$$$$
CHEMBL3421969
     RDKit          2D

 32 36  0  0  0  0  0  0  0  0999 V2000
    3.3890   -6.0001    0.0000 C   0  0  0  0  0  0  0  0  0  0  0  0
    2.8370   -5.3870    0.0000 O   0  0  0  0  0  0  0  0  0  0  0  0
    3.0919   -4.6024    0.0000 C   0  0  0  0  0  0  0  0  0  0  0  0
    3.8989   -4.4309    0.0000 C   0  0  0  0  0  0  0  0  0  0  0  0
    4.1538   -3.6462    0.0000 C   0  0  0  0  0  0  0  0  0  0  0  0
    3.6018   -3.0331    0.0000 C   0  0  0  0  0  0  0  0  0  0  0  0
    2.7948   -3.2047    0.0000 C   0  0  0  0  0  0  0  0  0  0  0  0
    2.5399   -3.9893    0.0000 C   0  0  0  0  0  0  0  0  0  0  0  0
    1.7329   -4.1608    0.0000 N   0  0  0  0  0  0  0  0  0  0  0  0
    1.1809   -3.5477    0.0000 C   0  0  0  0  0  0  0  0  0  0  0  0
    0.3739   -3.7192    0.0000 N   0  0  0  0  0  0  0  0  0  0  0  0
   -0.1781   -3.1062    0.0000 C   0  0  0  0  0  0  0  0  0  0  0  0
    0.0768   -2.3215    0.0000 C   0  0  0  0  0  0  0  0  0  0  0  0
    0.8838   -2.1500    0.0000 C   0  0  0  0  0  0  0  0  0  0  0  0
    1.4358   -2.7631    0.0000 N   0  0  0  0  0  0  0  0  0  0  0  0
    1.1387   -1.3654    0.0000 C   0  0  0  0  0  0  0  0  0  0  0  0
    0.6538   -0.6979    0.0000 C   0  0  0  0  0  0  0  0  0  0  0  0
    1.1387   -0.0305    0.0000 N   0  0  0  0  0  0  0  0  0  0  0  0
    1.9233   -0.2854    0.0000 C   0  0  0  0  0  0  0  0  0  0  0  0
    2.6378    0.1271    0.0000 C   0  0  0  0  0  0  0  0  0  0  0  0
    3.3523   -0.2854    0.0000 N   0  0  0  0  0  0  0  0  0  0  0  0
    3.3523   -1.1104    0.0000 C   0  0  0  0  0  0  0  0  0  0  0  0
    4.0668   -1.5229    0.0000 C   0  0  0  0  0  0  0  0  0  0  0  0
    2.6378   -1.5229    0.0000 C   0  0  0  0  0  0  0  0  0  0  0  0
    1.9233   -1.1104    0.0000 C   0  0  0  0  0  0  0  0  0  0  0  0
    4.9608   -3.4747    0.0000 N   0  0  0  0  0  0  0  0  0  0  0  0
    5.2157   -2.6901    0.0000 C   0  0  0  0  0  0  0  0  0  0  0  0
    6.0227   -2.5186    0.0000 C   0  0  0  0  0  0  0  0  0  0  0  0
    6.5747   -3.1317    0.0000 N   0  0  0  0  0  0  0  0  0  0  0  0
    7.3817   -2.9601    0.0000 C   0  0  0  0  0  0  0  0  0  0  0  0
    6.3198   -3.9163    0.0000 C   0  0  0  0  0  0  0  0  0  0  0  0
    5.5128   -4.0878    0.0000 C   0  0  0  0  0  0  0  0  0  0  0  0
  1  2  1  0
  2  3  1  0
  3  4  2  0
  4  5  1  0
  5  6  2  0
  6  7  1  0
  7  8  2  0
  3  8  1  0
  8  9  1  0
  9 10  1  0
 10 11  2  0
 11 12  1  0
 12 13  2  0
 13 14  1  0
 14 15  2  0
 10 15  1  0
 14 16  1  0
 16 17  2  0
 17 18  1  0
 18 19  1  0
 19 20  2  0
 20 21  1  0
 21 22  2  0
 22 23  1  0
 22 24  1  0
 24 25  2  0
 16 25  1  0
 19 25  1  0
  5 26  1  0
 26 27  1  0
 27 28  1  0
 28 29  1  0
 29 30  1  0
 29 31  1  0
 31 32  1  0
 26 32  1  0
M  END
>  <pIC50>  (161) 
4.98

>  <chembl_id>  (161) 
CHEMBL3421969

>  <canonical_smiles>  (161) 
COc1cc(ccc1Nc2nccc(n2)c3c[nH]c4cnc(C)cc34)N5CCN(C)CC5

$$$$
CHEMBL3421970
     RDKit          2D

 32 36  0  0  0  0  0  0  0  0999 V2000
    3.3890   -6.0001    0.0000 C   0  0  0  0  0  0  0  0  0  0  0  0
    2.8370   -5.3870    0.0000 O   0  0  0  0  0  0  0  0  0  0  0  0
    3.0919   -4.6024    0.0000 C   0  0  0  0  0  0  0  0  0  0  0  0
    3.8989   -4.4309    0.0000 C   0  0  0  0  0  0  0  0  0  0  0  0
    4.1538   -3.6462    0.0000 C   0  0  0  0  0  0  0  0  0  0  0  0
    3.6018   -3.0331    0.0000 C   0  0  0  0  0  0  0  0  0  0  0  0
    2.7948   -3.2047    0.0000 C   0  0  0  0  0  0  0  0  0  0  0  0
    2.5399   -3.9893    0.0000 C   0  0  0  0  0  0  0  0  0  0  0  0
    1.7329   -4.1608    0.0000 N   0  0  0  0  0  0  0  0  0  0  0  0
    1.1809   -3.5477    0.0000 C   0  0  0  0  0  0  0  0  0  0  0  0
    0.3739   -3.7192    0.0000 N   0  0  0  0  0  0  0  0  0  0  0  0
   -0.1781   -3.1062    0.0000 C   0  0  0  0  0  0  0  0  0  0  0  0
    0.0768   -2.3215    0.0000 C   0  0  0  0  0  0  0  0  0  0  0  0
    0.8838   -2.1500    0.0000 C   0  0  0  0  0  0  0  0  0  0  0  0
    1.4358   -2.7631    0.0000 N   0  0  0  0  0  0  0  0  0  0  0  0
    1.1387   -1.3654    0.0000 C   0  0  0  0  0  0  0  0  0  0  0  0
    0.6538   -0.6979    0.0000 C   0  0  0  0  0  0  0  0  0  0  0  0
    1.1387   -0.0305    0.0000 N   0  0  0  0  0  0  0  0  0  0  0  0
    1.9233   -0.2854    0.0000 C   0  0  0  0  0  0  0  0  0  0  0  0
    2.6378    0.1271    0.0000 C   0  0  0  0  0  0  0  0  0  0  0  0
    2.6378    0.9521    0.0000 C   0  0  0  0  0  0  0  0  0  0  0  0
    3.3523   -0.2854    0.0000 N   0  0  0  0  0  0  0  0  0  0  0  0
    3.3523   -1.1104    0.0000 C   0  0  0  0  0  0  0  0  0  0  0  0
    2.6378   -1.5229    0.0000 C   0  0  0  0  0  0  0  0  0  0  0  0
    1.9233   -1.1104    0.0000 C   0  0  0  0  0  0  0  0  0  0  0  0
    4.9608   -3.4747    0.0000 N   0  0  0  0  0  0  0  0  0  0  0  0
    5.2157   -2.6901    0.0000 C   0  0  0  0  0  0  0  0  0  0  0  0
    6.0227   -2.5186    0.0000 C   0  0  0  0  0  0  0  0  0  0  0  0
    6.5747   -3.1317    0.0000 N   0  0  0  0  0  0  0  0  0  0  0  0
    7.3817   -2.9601    0.0000 C   0  0  0  0  0  0  0  0  0  0  0  0
    6.3198   -3.9163    0.0000 C   0  0  0  0  0  0  0  0  0  0  0  0
    5.5128   -4.0878    0.0000 C   0  0  0  0  0  0  0  0  0  0  0  0
  1  2  1  0
  2  3  1  0
  3  4  2  0
  4  5  1  0
  5  6  2  0
  6  7  1  0
  7  8  2  0
  3  8  1  0
  8  9  1  0
  9 10  1  0
 10 11  2  0
 11 12  1  0
 12 13  2  0
 13 14  1  0
 14 15  2  0
 10 15  1  0
 14 16  1  0
 16 17  2  0
 17 18  1  0
 18 19  1  0
 19 20  2  0
 20 21  1  0
 20 22  1  0
 22 23  2  0
 23 24  1  0
 24 25  2  0
 16 25  1  0
 19 25  1  0
  5 26  1  0
 26 27  1  0
 27 28  1  0
 28 29  1  0
 29 30  1  0
 29 31  1  0
 31 32  1  0
 26 32  1  0
M  END
>  <pIC50>  (162) 
4.76

>  <chembl_id>  (162) 
CHEMBL3421970

>  <canonical_smiles>  (162) 
COc1cc(ccc1Nc2nccc(n2)c3c[nH]c4c(C)nccc34)N5CCN(C)CC5

$$$$
CHEMBL3421971
     RDKit          2D

 33 37  0  0  0  0  0  0  0  0999 V2000
    3.3890   -6.0001    0.0000 C   0  0  0  0  0  0  0  0  0  0  0  0
    2.8370   -5.3870    0.0000 O   0  0  0  0  0  0  0  0  0  0  0  0
    3.0919   -4.6024    0.0000 C   0  0  0  0  0  0  0  0  0  0  0  0
    3.8989   -4.4309    0.0000 C   0  0  0  0  0  0  0  0  0  0  0  0
    4.1538   -3.6462    0.0000 C   0  0  0  0  0  0  0  0  0  0  0  0
    3.6018   -3.0331    0.0000 C   0  0  0  0  0  0  0  0  0  0  0  0
    2.7948   -3.2047    0.0000 C   0  0  0  0  0  0  0  0  0  0  0  0
    2.5399   -3.9893    0.0000 C   0  0  0  0  0  0  0  0  0  0  0  0
    1.7329   -4.1608    0.0000 N   0  0  0  0  0  0  0  0  0  0  0  0
    1.1809   -3.5477    0.0000 C   0  0  0  0  0  0  0  0  0  0  0  0
    0.3739   -3.7192    0.0000 N   0  0  0  0  0  0  0  0  0  0  0  0
   -0.1781   -3.1062    0.0000 C   0  0  0  0  0  0  0  0  0  0  0  0
    0.0768   -2.3215    0.0000 C   0  0  0  0  0  0  0  0  0  0  0  0
    0.8838   -2.1500    0.0000 C   0  0  0  0  0  0  0  0  0  0  0  0
    1.4358   -2.7631    0.0000 N   0  0  0  0  0  0  0  0  0  0  0  0
    1.1387   -1.3654    0.0000 C   0  0  0  0  0  0  0  0  0  0  0  0
    0.6538   -0.6979    0.0000 C   0  0  0  0  0  0  0  0  0  0  0  0
    1.1387   -0.0305    0.0000 N   0  0  0  0  0  0  0  0  0  0  0  0
    0.8838    0.7541    0.0000 C   0  0  0  0  0  0  0  0  0  0  0  0
    1.9233   -0.2854    0.0000 C   0  0  0  0  0  0  0  0  0  0  0  0
    2.6378    0.1271    0.0000 C   0  0  0  0  0  0  0  0  0  0  0  0
    2.6378    0.9521    0.0000 C   0  0  0  0  0  0  0  0  0  0  0  0
    3.3523   -0.2854    0.0000 N   0  0  0  0  0  0  0  0  0  0  0  0
    3.3523   -1.1104    0.0000 C   0  0  0  0  0  0  0  0  0  0  0  0
    2.6378   -1.5229    0.0000 C   0  0  0  0  0  0  0  0  0  0  0  0
    1.9233   -1.1104    0.0000 C   0  0  0  0  0  0  0  0  0  0  0  0
    4.9608   -3.4747    0.0000 N   0  0  0  0  0  0  0  0  0  0  0  0
    5.2157   -2.6901    0.0000 C   0  0  0  0  0  0  0  0  0  0  0  0
    6.0227   -2.5186    0.0000 C   0  0  0  0  0  0  0  0  0  0  0  0
    6.5747   -3.1317    0.0000 N   0  0  0  0  0  0  0  0  0  0  0  0
    7.3817   -2.9601    0.0000 C   0  0  0  0  0  0  0  0  0  0  0  0
    6.3198   -3.9163    0.0000 C   0  0  0  0  0  0  0  0  0  0  0  0
    5.5128   -4.0878    0.0000 C   0  0  0  0  0  0  0  0  0  0  0  0
  1  2  1  0
  2  3  1  0
  3  4  2  0
  4  5  1  0
  5  6  2  0
  6  7  1  0
  7  8  2  0
  3  8  1  0
  8  9  1  0
  9 10  1  0
 10 11  2  0
 11 12  1  0
 12 13  2  0
 13 14  1  0
 14 15  2  0
 10 15  1  0
 14 16  1  0
 16 17  2  0
 17 18  1  0
 18 19  1  0
 18 20  1  0
 20 21  2  0
 21 22  1  0
 21 23  1  0
 23 24  2  0
 24 25  1  0
 25 26  2  0
 16 26  1  0
 20 26  1  0
  5 27  1  0
 27 28  1  0
 28 29  1  0
 29 30  1  0
 30 31  1  0
 30 32  1  0
 32 33  1  0
 27 33  1  0
M  END
>  <pIC50>  (163) 
4.86

>  <chembl_id>  (163) 
CHEMBL3421971

>  <canonical_smiles>  (163) 
COc1cc(ccc1Nc2nccc(n2)c3cn(C)c4c(C)nccc34)N5CCN(C)CC5

$$$$
CHEMBL3421973
     RDKit          2D

 30 34  0  0  0  0  0  0  0  0999 V2000
   -0.0517   -9.6532    0.0000 C   0  0  0  0  0  0  0  0  0  0  0  0
    0.2033   -8.8685    0.0000 N   0  0  0  0  0  0  0  0  0  0  0  0
   -0.3488   -8.2554    0.0000 C   0  0  0  0  0  0  0  0  0  0  0  0
   -0.0938   -7.4708    0.0000 C   0  0  0  0  0  0  0  0  0  0  0  0
    0.7132   -7.2993    0.0000 N   0  0  0  0  0  0  0  0  0  0  0  0
    1.2652   -7.9124    0.0000 C   0  0  0  0  0  0  0  0  0  0  0  0
    1.0102   -8.6970    0.0000 C   0  0  0  0  0  0  0  0  0  0  0  0
    0.9681   -6.5147    0.0000 C   0  0  0  0  0  0  0  0  0  0  0  0
    0.4161   -5.9016    0.0000 C   0  0  0  0  0  0  0  0  0  0  0  0
    0.6710   -5.1170    0.0000 C   0  0  0  0  0  0  0  0  0  0  0  0
    1.4780   -4.9454    0.0000 C   0  0  0  0  0  0  0  0  0  0  0  0
    1.7329   -4.1608    0.0000 N   0  0  0  0  0  0  0  0  0  0  0  0
    1.1809   -3.5477    0.0000 C   0  0  0  0  0  0  0  0  0  0  0  0
    0.3739   -3.7192    0.0000 N   0  0  0  0  0  0  0  0  0  0  0  0
   -0.1781   -3.1062    0.0000 C   0  0  0  0  0  0  0  0  0  0  0  0
    0.0768   -2.3215    0.0000 C   0  0  0  0  0  0  0  0  0  0  0  0
   -0.4752   -1.7084    0.0000 Cl  0  0  0  0  0  0  0  0  0  0  0  0
    0.8838   -2.1500    0.0000 C   0  0  0  0  0  0  0  0  0  0  0  0
    1.4358   -2.7631    0.0000 N   0  0  0  0  0  0  0  0  0  0  0  0
    1.1387   -1.3654    0.0000 C   0  0  0  0  0  0  0  0  0  0  0  0
    0.6538   -0.6979    0.0000 C   0  0  0  0  0  0  0  0  0  0  0  0
    1.1387   -0.0305    0.0000 N   0  0  0  0  0  0  0  0  0  0  0  0
    1.9233   -0.2854    0.0000 C   0  0  0  0  0  0  0  0  0  0  0  0
    2.6378    0.1271    0.0000 C   0  0  0  0  0  0  0  0  0  0  0  0
    3.3523   -0.2854    0.0000 N   0  0  0  0  0  0  0  0  0  0  0  0
    3.3523   -1.1104    0.0000 C   0  0  0  0  0  0  0  0  0  0  0  0
    2.6378   -1.5229    0.0000 C   0  0  0  0  0  0  0  0  0  0  0  0
    1.9233   -1.1104    0.0000 C   0  0  0  0  0  0  0  0  0  0  0  0
    2.0300   -5.5585    0.0000 C   0  0  0  0  0  0  0  0  0  0  0  0
    1.7751   -6.3432    0.0000 C   0  0  0  0  0  0  0  0  0  0  0  0
  1  2  1  0
  2  3  1  0
  3  4  1  0
  4  5  1  0
  5  6  1  0
  6  7  1  0
  2  7  1  0
  5  8  1  0
  8  9  2  0
  9 10  1  0
 10 11  2  0
 11 12  1  0
 12 13  1  0
 13 14  2  0
 14 15  1  0
 15 16  2  0
 16 17  1  0
 16 18  1  0
 18 19  2  0
 13 19  1  0
 18 20  1  0
 20 21  2  0
 21 22  1  0
 22 23  1  0
 23 24  2  0
 24 25  1  0
 25 26  2  0
 26 27  1  0
 27 28  2  0
 20 28  1  0
 23 28  1  0
 11 29  1  0
 29 30  2  0
  8 30  1  0
M  END
>  <pIC50>  (164) 
7.70

>  <chembl_id>  (164) 
CHEMBL3421973

>  <canonical_smiles>  (164) 
CN1CCN(CC1)c2ccc(Nc3ncc(Cl)c(n3)c4c[nH]c5cnccc45)cc2

$$$$
CHEMBL3421974
     RDKit          2D

 29 33  0  0  0  0  0  0  0  0999 V2000
    3.1341   -6.7847    0.0000 O   0  0  0  0  0  0  0  0  0  0  0  0
    3.3890   -6.0001    0.0000 C   0  0  0  0  0  0  0  0  0  0  0  0
    4.1960   -5.8286    0.0000 N   0  0  0  0  0  0  0  0  0  0  0  0
    4.7480   -6.4417    0.0000 C   0  0  0  0  0  0  0  0  0  0  0  0
    5.5685   -6.3554    0.0000 C   0  0  0  0  0  0  0  0  0  0  0  0
    5.9040   -7.1091    0.0000 C   0  0  0  0  0  0  0  0  0  0  0  0
    5.2910   -7.6611    0.0000 C   0  0  0  0  0  0  0  0  0  0  0  0
    4.5765   -7.2486    0.0000 C   0  0  0  0  0  0  0  0  0  0  0  0
    2.8370   -5.3870    0.0000 C   0  0  0  0  0  0  0  0  0  0  0  0
    2.0300   -5.5585    0.0000 C   0  0  0  0  0  0  0  0  0  0  0  0
    1.4780   -4.9454    0.0000 C   0  0  0  0  0  0  0  0  0  0  0  0
    1.7329   -4.1608    0.0000 C   0  0  0  0  0  0  0  0  0  0  0  0
    2.5399   -3.9893    0.0000 C   0  0  0  0  0  0  0  0  0  0  0  0
    3.0919   -4.6024    0.0000 C   0  0  0  0  0  0  0  0  0  0  0  0
    1.1809   -3.5477    0.0000 C   0  0  0  0  0  0  0  0  0  0  0  0
    0.3739   -3.7192    0.0000 N   0  0  0  0  0  0  0  0  0  0  0  0
   -0.1781   -3.1062    0.0000 C   0  0  0  0  0  0  0  0  0  0  0  0
    0.0768   -2.3215    0.0000 C   0  0  0  0  0  0  0  0  0  0  0  0
    0.8838   -2.1500    0.0000 C   0  0  0  0  0  0  0  0  0  0  0  0
    1.4358   -2.7631    0.0000 N   0  0  0  0  0  0  0  0  0  0  0  0
    1.1387   -1.3654    0.0000 C   0  0  0  0  0  0  0  0  0  0  0  0
    0.6538   -0.6979    0.0000 C   0  0  0  0  0  0  0  0  0  0  0  0
    1.1387   -0.0305    0.0000 N   0  0  0  0  0  0  0  0  0  0  0  0
    1.9233   -0.2854    0.0000 C   0  0  0  0  0  0  0  0  0  0  0  0
    2.6378    0.1271    0.0000 C   0  0  0  0  0  0  0  0  0  0  0  0
    3.3523   -0.2854    0.0000 N   0  0  0  0  0  0  0  0  0  0  0  0
    3.3523   -1.1104    0.0000 C   0  0  0  0  0  0  0  0  0  0  0  0
    2.6378   -1.5229    0.0000 C   0  0  0  0  0  0  0  0  0  0  0  0
    1.9233   -1.1104    0.0000 C   0  0  0  0  0  0  0  0  0  0  0  0
  1  2  2  0
  2  3  1  0
  3  4  1  0
  4  5  1  0
  5  6  1  0
  6  7  1  0
  7  8  1  0
  4  8  1  0
  2  9  1  0
  9 10  2  0
 10 11  1  0
 11 12  2  0
 12 13  1  0
 13 14  2  0
  9 14  1  0
 12 15  1  0
 15 16  2  0
 16 17  1  0
 17 18  2  0
 18 19  1  0
 19 20  2  0
 15 20  1  0
 19 21  1  0
 21 22  2  0
 22 23  1  0
 23 24  1  0
 24 25  2  0
 25 26  1  0
 26 27  2  0
 27 28  1  0
 28 29  2  0
 21 29  1  0
 24 29  1  0
M  END
>  <pIC50>  (165) 
4.34

>  <chembl_id>  (165) 
CHEMBL3421974

>  <canonical_smiles>  (165) 
O=C(NC1CCCC1)c2ccc(cc2)c3nccc(n3)c4c[nH]c5cnccc45

$$$$
CHEMBL3421975
     RDKit          2D

 25 28  0  0  0  0  0  0  0  0999 V2000
    3.9410   -6.6132    0.0000 C   0  0  0  0  0  0  0  0  0  0  0  0
    3.3890   -6.0001    0.0000 S   0  0  0  0  0  0  0  0  0  0  0  0
    4.0021   -5.4481    0.0000 O   0  0  0  0  0  0  0  0  0  0  0  0
    2.7759   -6.5521    0.0000 O   0  0  0  0  0  0  0  0  0  0  0  0
    2.8370   -5.3870    0.0000 C   0  0  0  0  0  0  0  0  0  0  0  0
    2.0300   -5.5585    0.0000 C   0  0  0  0  0  0  0  0  0  0  0  0
    1.4780   -4.9454    0.0000 C   0  0  0  0  0  0  0  0  0  0  0  0
    1.7329   -4.1608    0.0000 C   0  0  0  0  0  0  0  0  0  0  0  0
    2.5399   -3.9893    0.0000 C   0  0  0  0  0  0  0  0  0  0  0  0
    3.0919   -4.6024    0.0000 C   0  0  0  0  0  0  0  0  0  0  0  0
    1.1809   -3.5477    0.0000 C   0  0  0  0  0  0  0  0  0  0  0  0
    0.3739   -3.7192    0.0000 N   0  0  0  0  0  0  0  0  0  0  0  0
   -0.1781   -3.1062    0.0000 C   0  0  0  0  0  0  0  0  0  0  0  0
    0.0768   -2.3215    0.0000 C   0  0  0  0  0  0  0  0  0  0  0  0
    0.8838   -2.1500    0.0000 C   0  0  0  0  0  0  0  0  0  0  0  0
    1.4358   -2.7631    0.0000 N   0  0  0  0  0  0  0  0  0  0  0  0
    1.1387   -1.3654    0.0000 C   0  0  0  0  0  0  0  0  0  0  0  0
    0.6538   -0.6979    0.0000 C   0  0  0  0  0  0  0  0  0  0  0  0
    1.1387   -0.0305    0.0000 N   0  0  0  0  0  0  0  0  0  0  0  0
    1.9233   -0.2854    0.0000 C   0  0  0  0  0  0  0  0  0  0  0  0
    2.6378    0.1271    0.0000 C   0  0  0  0  0  0  0  0  0  0  0  0
    3.3523   -0.2854    0.0000 N   0  0  0  0  0  0  0  0  0  0  0  0
    3.3523   -1.1104    0.0000 C   0  0  0  0  0  0  0  0  0  0  0  0
    2.6378   -1.5229    0.0000 C   0  0  0  0  0  0  0  0  0  0  0  0
    1.9233   -1.1104    0.0000 C   0  0  0  0  0  0  0  0  0  0  0  0
  1  2  1  0
  2  3  2  0
  2  4  2  0
  2  5  1  0
  5  6  2  0
  6  7  1  0
  7  8  2  0
  8  9  1  0
  9 10  2  0
  5 10  1  0
  8 11  1  0
 11 12  2  0
 12 13  1  0
 13 14  2  0
 14 15  1  0
 15 16  2  0
 11 16  1  0
 15 17  1  0
 17 18  2  0
 18 19  1  0
 19 20  1  0
 20 21  2  0
 21 22  1  0
 22 23  2  0
 23 24  1  0
 24 25  2  0
 17 25  1  0
 20 25  1  0
M  END
>  <pIC50>  (166) 
4.77

>  <chembl_id>  (166) 
CHEMBL3421975

>  <canonical_smiles>  (166) 
CS(=O)(=O)c1ccc(cc1)c2nccc(n2)c3c[nH]c4cnccc34

$$$$
CHEMBL3421978
     RDKit          2D

 23 26  0  0  0  0  0  0  0  0999 V2000
    1.4780   -4.9454    0.0000 C   0  0  0  0  0  0  0  0  0  0  0  0
    1.7329   -4.1608    0.0000 C   0  0  0  0  0  0  0  0  0  0  0  0
    1.1809   -3.5477    0.0000 C   0  0  0  0  0  0  0  0  0  0  0  0
    0.3739   -3.7192    0.0000 N   0  0  0  0  0  0  0  0  0  0  0  0
   -0.1781   -3.1062    0.0000 C   0  0  0  0  0  0  0  0  0  0  0  0
    0.0768   -2.3215    0.0000 C   0  0  0  0  0  0  0  0  0  0  0  0
    0.8838   -2.1500    0.0000 C   0  0  0  0  0  0  0  0  0  0  0  0
    1.4358   -2.7631    0.0000 N   0  0  0  0  0  0  0  0  0  0  0  0
    1.1387   -1.3654    0.0000 C   0  0  0  0  0  0  0  0  0  0  0  0
    0.6538   -0.6979    0.0000 C   0  0  0  0  0  0  0  0  0  0  0  0
    1.1387   -0.0305    0.0000 N   0  0  0  0  0  0  0  0  0  0  0  0
    1.9233   -0.2854    0.0000 C   0  0  0  0  0  0  0  0  0  0  0  0
    2.6378    0.1271    0.0000 C   0  0  0  0  0  0  0  0  0  0  0  0
    3.3523   -0.2854    0.0000 N   0  0  0  0  0  0  0  0  0  0  0  0
    3.3523   -1.1104    0.0000 C   0  0  0  0  0  0  0  0  0  0  0  0
    2.6378   -1.5229    0.0000 C   0  0  0  0  0  0  0  0  0  0  0  0
    1.9233   -1.1104    0.0000 C   0  0  0  0  0  0  0  0  0  0  0  0
    2.0300   -5.5585    0.0000 C   0  0  0  0  0  0  0  0  0  0  0  0
    2.8370   -5.3870    0.0000 C   0  0  0  0  0  0  0  0  0  0  0  0
    3.3890   -6.0001    0.0000 C   0  0  0  0  0  0  0  0  0  0  0  0
    3.1341   -6.7847    0.0000 C   0  0  0  0  0  0  0  0  0  0  0  0
    2.3271   -6.9562    0.0000 C   0  0  0  0  0  0  0  0  0  0  0  0
    1.7751   -6.3432    0.0000 C   0  0  0  0  0  0  0  0  0  0  0  0
  1  2  2  0
  2  3  1  0
  3  4  2  0
  4  5  1  0
  5  6  2  0
  6  7  1  0
  7  8  2  0
  3  8  1  0
  7  9  1  0
  9 10  2  0
 10 11  1  0
 11 12  1  0
 12 13  2  0
 13 14  1  0
 14 15  2  0
 15 16  1  0
 16 17  2  0
  9 17  1  0
 12 17  1  0
  1 18  1  0
 18 19  2  0
 19 20  1  0
 20 21  2  0
 21 22  1  0
 22 23  2  0
 18 23  1  0
M  END
>  <pIC50>  (167) 
5.29

>  <chembl_id>  (167) 
CHEMBL3421978

>  <canonical_smiles>  (167) 
C(=C\c1nccc(n1)c2c[nH]c3cnccc23)/c4ccccc4

$$$$
CHEMBL3421979
     RDKit          2D

 16 18  0  0  0  0  0  0  0  0999 V2000
    1.7329   -4.1608    0.0000 C   0  0  0  0  0  0  0  0  0  0  0  0
    1.1809   -3.5477    0.0000 C   0  0  0  0  0  0  0  0  0  0  0  0
    0.3739   -3.7192    0.0000 N   0  0  0  0  0  0  0  0  0  0  0  0
   -0.1781   -3.1062    0.0000 C   0  0  0  0  0  0  0  0  0  0  0  0
    0.0768   -2.3215    0.0000 C   0  0  0  0  0  0  0  0  0  0  0  0
    0.8838   -2.1500    0.0000 C   0  0  0  0  0  0  0  0  0  0  0  0
    1.4358   -2.7631    0.0000 N   0  0  0  0  0  0  0  0  0  0  0  0
    1.1387   -1.3654    0.0000 C   0  0  0  0  0  0  0  0  0  0  0  0
    0.6538   -0.6979    0.0000 C   0  0  0  0  0  0  0  0  0  0  0  0
    1.1387   -0.0305    0.0000 N   0  0  0  0  0  0  0  0  0  0  0  0
    1.9233   -0.2854    0.0000 C   0  0  0  0  0  0  0  0  0  0  0  0
    2.6378    0.1271    0.0000 C   0  0  0  0  0  0  0  0  0  0  0  0
    3.3523   -0.2854    0.0000 N   0  0  0  0  0  0  0  0  0  0  0  0
    3.3523   -1.1104    0.0000 C   0  0  0  0  0  0  0  0  0  0  0  0
    2.6378   -1.5229    0.0000 C   0  0  0  0  0  0  0  0  0  0  0  0
    1.9233   -1.1104    0.0000 C   0  0  0  0  0  0  0  0  0  0  0  0
  1  2  1  0
  2  3  2  0
  3  4  1  0
  4  5  2  0
  5  6  1  0
  6  7  2  0
  2  7  1  0
  6  8  1  0
  8  9  2  0
  9 10  1  0
 10 11  1  0
 11 12  2  0
 12 13  1  0
 13 14  2  0
 14 15  1  0
 15 16  2  0
  8 16  1  0
 11 16  1  0
M  END
>  <pIC50>  (168) 
4.42

>  <chembl_id>  (168) 
CHEMBL3421979

>  <canonical_smiles>  (168) 
Cc1nccc(n1)c2c[nH]c3cnccc23

$$$$
CHEMBL3421980
     RDKit          2D

 23 26  0  0  0  0  0  0  0  0999 V2000
    1.7329   -4.1608    0.0000 C   0  0  0  0  0  0  0  0  0  0  0  0
    1.1809   -3.5477    0.0000 C   0  0  0  0  0  0  0  0  0  0  0  0
    0.3739   -3.7192    0.0000 N   0  0  0  0  0  0  0  0  0  0  0  0
   -0.1781   -3.1062    0.0000 C   0  0  0  0  0  0  0  0  0  0  0  0
    0.0768   -2.3215    0.0000 C   0  0  0  0  0  0  0  0  0  0  0  0
    0.8838   -2.1500    0.0000 C   0  0  0  0  0  0  0  0  0  0  0  0
    1.4358   -2.7631    0.0000 N   0  0  0  0  0  0  0  0  0  0  0  0
    1.1387   -1.3654    0.0000 C   0  0  0  0  0  0  0  0  0  0  0  0
    0.6538   -0.6979    0.0000 C   0  0  0  0  0  0  0  0  0  0  0  0
    1.1387   -0.0305    0.0000 N   0  0  0  0  0  0  0  0  0  0  0  0
    0.8838    0.7541    0.0000 C   0  0  0  0  0  0  0  0  0  0  0  0
    1.4358    1.3672    0.0000 C   0  0  0  0  0  0  0  0  0  0  0  0
    1.1809    2.1518    0.0000 C   0  0  0  0  0  0  0  0  0  0  0  0
    1.7329    2.7649    0.0000 C   0  0  0  0  0  0  0  0  0  0  0  0
    2.5399    2.5934    0.0000 C   0  0  0  0  0  0  0  0  0  0  0  0
    2.7948    1.8088    0.0000 C   0  0  0  0  0  0  0  0  0  0  0  0
    2.2428    1.1957    0.0000 C   0  0  0  0  0  0  0  0  0  0  0  0
    1.9233   -0.2854    0.0000 C   0  0  0  0  0  0  0  0  0  0  0  0
    2.6378    0.1271    0.0000 C   0  0  0  0  0  0  0  0  0  0  0  0
    3.3523   -0.2854    0.0000 N   0  0  0  0  0  0  0  0  0  0  0  0
    3.3523   -1.1104    0.0000 C   0  0  0  0  0  0  0  0  0  0  0  0
    2.6378   -1.5229    0.0000 C   0  0  0  0  0  0  0  0  0  0  0  0
    1.9233   -1.1104    0.0000 C   0  0  0  0  0  0  0  0  0  0  0  0
  1  2  1  0
  2  3  2  0
  3  4  1  0
  4  5  2  0
  5  6  1  0
  6  7  2  0
  2  7  1  0
  6  8  1  0
  8  9  2  0
  9 10  1  0
 10 11  1  0
 11 12  1  0
 12 13  2  0
 13 14  1  0
 14 15  2  0
 15 16  1  0
 16 17  2  0
 12 17  1  0
 10 18  1  0
 18 19  2  0
 19 20  1  0
 20 21  2  0
 21 22  1  0
 22 23  2  0
  8 23  1  0
 18 23  1  0
M  END
>  <pIC50>  (169) 
4.25

>  <chembl_id>  (169) 
CHEMBL3421980

>  <canonical_smiles>  (169) 
Cc1nccc(n1)c2cn(Cc3ccccc3)c4cnccc24

$$$$
CHEMBL3421981
     RDKit          2D

 18 21  0  0  0  0  0  0  0  0999 V2000
    5.3054    2.9890    0.0000 C   0  0  0  0  0  0  0  0  0  0  0  0
    4.7533    2.3759    0.0000 C   0  0  0  0  0  0  0  0  0  0  0  0
    3.9464    2.5474    0.0000 C   0  0  0  0  0  0  0  0  0  0  0  0
    3.2789    2.0625    0.0000 C   0  0  0  0  0  0  0  0  0  0  0  0
    2.6115    2.5474    0.0000 C   0  0  0  0  0  0  0  0  0  0  0  0
    2.8664    3.3320    0.0000 N   0  0  0  0  0  0  0  0  0  0  0  0
    3.6914    3.3320    0.0000 C   0  0  0  0  0  0  0  0  0  0  0  0
    4.2435    3.9451    0.0000 C   0  0  0  0  0  0  0  0  0  0  0  0
    5.0504    3.7736    0.0000 N   0  0  0  0  0  0  0  0  0  0  0  0
    3.2789    1.2375    0.0000 C   0  0  0  0  0  0  0  0  0  0  0  0
    3.9934    0.8250    0.0000 C   0  0  0  0  0  0  0  0  0  0  0  0
    3.9934    0.0000    0.0000 C   0  0  0  0  0  0  0  0  0  0  0  0
    3.2789   -0.4125    0.0000 N   0  0  0  0  0  0  0  0  0  0  0  0
    2.5645    0.0000    0.0000 C   0  0  0  0  0  0  0  0  0  0  0  0
    1.7798   -0.2549    0.0000 N   0  0  0  0  0  0  0  0  0  0  0  0
    1.2949    0.4125    0.0000 C   0  0  0  0  0  0  0  0  0  0  0  0
    1.7798    1.0799    0.0000 C   0  0  0  0  0  0  0  0  0  0  0  0
    2.5645    0.8250    0.0000 C   0  0  0  0  0  0  0  0  0  0  0  0
  1  2  2  0
  2  3  1  0
  3  4  1  0
  4  5  2  0
  5  6  1  0
  6  7  1  0
  3  7  2  0
  7  8  1  0
  8  9  2  0
  1  9  1  0
  4 10  1  0
 10 11  2  0
 11 12  1  0
 12 13  2  0
 13 14  1  0
 14 15  1  0
 15 16  1  0
 16 17  2  0
 17 18  1  0
 10 18  1  0
 14 18  2  0
M  END
>  <pIC50>  (170) 
6.50

>  <chembl_id>  (170) 
CHEMBL3421981

>  <canonical_smiles>  (170) 
c1cc2c(c[nH]c2cn1)c3ccnc4[nH]ccc34

$$$$
CHEMBL3545110
     RDKit          2D

 32 36  0  0  0  0  0  0  0  0999 V2000
   -1.4087    0.0165    0.0000 C   0  0  0  0  0  0  0  0  0  0  0  0
   -0.5837    0.0165    0.0000 N   0  0  0  0  0  0  0  0  0  0  0  0
   -0.1712    0.7310    0.0000 C   0  0  0  0  0  0  0  0  0  0  0  0
   -0.1712   -0.6979    0.0000 C   0  0  0  0  0  0  0  0  0  0  0  0
   -0.5837   -1.4124    0.0000 O   0  0  0  0  0  0  0  0  0  0  0  0
    0.6538   -0.6979    0.0000 C   0  0  0  0  0  0  0  0  0  0  0  0
    1.1387   -0.0305    0.0000 C   0  0  0  0  0  0  0  0  0  0  0  0
    1.9233   -0.2854    0.0000 C   0  0  0  0  0  0  0  0  0  0  0  0
    2.6378    0.1271    0.0000 C   0  0  0  0  0  0  0  0  0  0  0  0
    3.3523   -0.2854    0.0000 N   0  0  0  0  0  0  0  0  0  0  0  0
    3.3523   -1.1104    0.0000 C   0  0  0  0  0  0  0  0  0  0  0  0
    4.0668   -1.5229    0.0000 N   0  0  0  0  0  0  0  0  0  0  0  0
    4.0668   -2.3479    0.0000 C   0  0  0  0  0  0  0  0  0  0  0  0
    4.7812   -2.7604    0.0000 C   0  0  0  0  0  0  0  0  0  0  0  0
    4.7812   -3.5854    0.0000 C   0  0  0  0  0  0  0  0  0  0  0  0
    4.0668   -3.9979    0.0000 C   0  0  0  0  0  0  0  0  0  0  0  0
    3.3523   -3.5854    0.0000 C   0  0  0  0  0  0  0  0  0  0  0  0
    3.3523   -2.7604    0.0000 N   0  0  0  0  0  0  0  0  0  0  0  0
    4.0668   -4.8229    0.0000 N   0  0  0  0  0  0  0  0  0  0  0  0
    4.7812   -5.2354    0.0000 C   0  0  0  0  0  0  0  0  0  0  0  0
    4.7812   -6.0604    0.0000 C   0  0  0  0  0  0  0  0  0  0  0  0
    4.0668   -6.4729    0.0000 N   0  0  0  0  0  0  0  0  0  0  0  0
    3.3523   -6.0604    0.0000 C   0  0  0  0  0  0  0  0  0  0  0  0
    3.3523   -5.2354    0.0000 C   0  0  0  0  0  0  0  0  0  0  0  0
    2.6378   -1.5229    0.0000 N   0  0  0  0  0  0  0  0  0  0  0  0
    1.9233   -1.1104    0.0000 C   0  0  0  0  0  0  0  0  0  0  0  0
    1.1387   -1.3654    0.0000 N   0  0  0  0  0  0  0  0  0  0  0  0
    0.8838   -2.1500    0.0000 C   0  0  0  0  0  0  0  0  0  0  0  0
    1.3687   -2.8174    0.0000 C   0  0  0  0  0  0  0  0  0  0  0  0
    0.8838   -3.4849    0.0000 C   0  0  0  0  0  0  0  0  0  0  0  0
    0.0992   -3.2299    0.0000 C   0  0  0  0  0  0  0  0  0  0  0  0
    0.0992   -2.4049    0.0000 C   0  0  0  0  0  0  0  0  0  0  0  0
  1  2  1  0
  2  3  1  0
  2  4  1  0
  4  5  2  0
  4  6  1  0
  6  7  2  0
  7  8  1  0
  8  9  2  0
  9 10  1  0
 10 11  2  0
 11 12  1  0
 12 13  1  0
 13 14  2  0
 14 15  1  0
 15 16  2  0
 16 17  1  0
 17 18  2  0
 13 18  1  0
 16 19  1  0
 19 20  1  0
 20 21  1  0
 21 22  1  0
 22 23  1  0
 23 24  1  0
 19 24  1  0
 11 25  1  0
 25 26  2  0
  8 26  1  0
 26 27  1  0
  6 27  1  0
 27 28  1  0
 28 29  1  0
 29 30  1  0
 30 31  1  0
 31 32  1  0
 28 32  1  0
M  END
>  <pIC50>  (171) 
4.12

>  <chembl_id>  (171) 
CHEMBL3545110

>  <canonical_smiles>  (171) 
CN(C)C(=O)c1cc2cnc(Nc3ccc(cn3)N4CCNCC4)nc2n1C5CCCC5

$$$$
CHEMBL359554
     RDKit          2D

 22 25  0  0  0  0  0  0  0  0999 V2000
    1.7329   -4.1608    0.0000 N   0  0  0  0  0  0  0  0  0  0  0  0
    1.4780   -4.9454    0.0000 C   0  0  0  0  0  0  0  0  0  0  0  0
    2.0300   -5.5585    0.0000 C   0  0  0  0  0  0  0  0  0  0  0  0
    1.7751   -6.3432    0.0000 C   0  0  0  0  0  0  0  0  0  0  0  0
    0.9681   -6.5147    0.0000 C   0  0  0  0  0  0  0  0  0  0  0  0
    0.4161   -5.9016    0.0000 C   0  0  0  0  0  0  0  0  0  0  0  0
    0.6710   -5.1170    0.0000 C   0  0  0  0  0  0  0  0  0  0  0  0
    1.1809   -3.5477    0.0000 C   0  0  0  0  0  0  0  0  0  0  0  0
    0.3739   -3.7192    0.0000 N   0  0  0  0  0  0  0  0  0  0  0  0
   -0.1781   -3.1062    0.0000 C   0  0  0  0  0  0  0  0  0  0  0  0
    0.0768   -2.3215    0.0000 C   0  0  0  0  0  0  0  0  0  0  0  0
    0.8838   -2.1500    0.0000 C   0  0  0  0  0  0  0  0  0  0  0  0
    1.4358   -2.7631    0.0000 N   0  0  0  0  0  0  0  0  0  0  0  0
    1.1387   -1.3654    0.0000 C   0  0  0  0  0  0  0  0  0  0  0  0
    0.6538   -0.6979    0.0000 C   0  0  0  0  0  0  0  0  0  0  0  0
    1.1387   -0.0305    0.0000 N   0  0  0  0  0  0  0  0  0  0  0  0
    1.9233   -0.2854    0.0000 N   0  0  0  0  0  0  0  0  0  0  0  0
    2.6378    0.1271    0.0000 N   0  0  0  0  0  0  0  0  0  0  0  0
    3.3523   -0.2854    0.0000 C   0  0  0  0  0  0  0  0  0  0  0  0
    3.3523   -1.1104    0.0000 C   0  0  0  0  0  0  0  0  0  0  0  0
    2.6378   -1.5229    0.0000 C   0  0  0  0  0  0  0  0  0  0  0  0
    1.9233   -1.1104    0.0000 C   0  0  0  0  0  0  0  0  0  0  0  0
  1  2  1  0
  2  3  2  0
  3  4  1  0
  4  5  2  0
  5  6  1  0
  6  7  2  0
  2  7  1  0
  1  8  1  0
  8  9  2  0
  9 10  1  0
 10 11  2  0
 11 12  1  0
 12 13  2  0
  8 13  1  0
 12 14  1  0
 14 15  1  0
 15 16  2  0
 16 17  1  0
 17 18  1  0
 18 19  2  0
 19 20  1  0
 20 21  2  0
 21 22  1  0
 14 22  2  0
 17 22  1  0
M  END
>  <pIC50>  (172) 
8.10

>  <chembl_id>  (172) 
CHEMBL359554

>  <canonical_smiles>  (172) 
N(c1ccccc1)c2nccc(n2)c3cnn4ncccc34

$$$$
CHEMBL359794
     RDKit          2D

 24 27  0  0  0  0  0  0  0  0999 V2000
    0.4582   -8.0839    0.0000 N   0  0  0  0  0  0  0  0  0  0  0  0
    0.7132   -7.2993    0.0000 C   0  0  0  0  0  0  0  0  0  0  0  0
    0.9681   -6.5147    0.0000 C   0  0  0  0  0  0  0  0  0  0  0  0
    0.4161   -5.9016    0.0000 C   0  0  0  0  0  0  0  0  0  0  0  0
    0.6710   -5.1170    0.0000 C   0  0  0  0  0  0  0  0  0  0  0  0
    1.4780   -4.9454    0.0000 C   0  0  0  0  0  0  0  0  0  0  0  0
    1.7329   -4.1608    0.0000 N   0  0  0  0  0  0  0  0  0  0  0  0
    1.1809   -3.5477    0.0000 C   0  0  0  0  0  0  0  0  0  0  0  0
    0.3739   -3.7192    0.0000 N   0  0  0  0  0  0  0  0  0  0  0  0
   -0.1781   -3.1062    0.0000 C   0  0  0  0  0  0  0  0  0  0  0  0
    0.0768   -2.3215    0.0000 C   0  0  0  0  0  0  0  0  0  0  0  0
    0.8838   -2.1500    0.0000 C   0  0  0  0  0  0  0  0  0  0  0  0
    1.4358   -2.7631    0.0000 N   0  0  0  0  0  0  0  0  0  0  0  0
    1.1387   -1.3654    0.0000 C   0  0  0  0  0  0  0  0  0  0  0  0
    0.6538   -0.6979    0.0000 C   0  0  0  0  0  0  0  0  0  0  0  0
    1.1387   -0.0305    0.0000 N   0  0  0  0  0  0  0  0  0  0  0  0
    1.9233   -0.2854    0.0000 N   0  0  0  0  0  0  0  0  0  0  0  0
    2.6378    0.1271    0.0000 N   0  0  0  0  0  0  0  0  0  0  0  0
    3.3523   -0.2854    0.0000 C   0  0  0  0  0  0  0  0  0  0  0  0
    3.3523   -1.1104    0.0000 C   0  0  0  0  0  0  0  0  0  0  0  0
    2.6378   -1.5229    0.0000 C   0  0  0  0  0  0  0  0  0  0  0  0
    1.9233   -1.1104    0.0000 C   0  0  0  0  0  0  0  0  0  0  0  0
    2.0300   -5.5585    0.0000 C   0  0  0  0  0  0  0  0  0  0  0  0
    1.7751   -6.3432    0.0000 C   0  0  0  0  0  0  0  0  0  0  0  0
  1  2  3  0
  2  3  1  0
  3  4  2  0
  4  5  1  0
  5  6  2  0
  6  7  1  0
  7  8  1  0
  8  9  2  0
  9 10  1  0
 10 11  2  0
 11 12  1  0
 12 13  2  0
  8 13  1  0
 12 14  1  0
 14 15  1  0
 15 16  2  0
 16 17  1  0
 17 18  1  0
 18 19  2  0
 19 20  1  0
 20 21  2  0
 21 22  1  0
 14 22  2  0
 17 22  1  0
  6 23  1  0
 23 24  2  0
  3 24  1  0
M  END
>  <pIC50>  (173) 
8.70

>  <chembl_id>  (173) 
CHEMBL359794

>  <canonical_smiles>  (173) 
N#Cc1ccc(Nc2nccc(n2)c3cnn4ncccc34)cc1

$$$$
CHEMBL359963
     RDKit          2D

 25 28  0  0  0  0  0  0  0  0999 V2000
    1.2652   -7.9124    0.0000 C   0  0  0  0  0  0  0  0  0  0  0  0
    0.7132   -7.2993    0.0000 C   0  0  0  0  0  0  0  0  0  0  0  0
   -0.0938   -7.4708    0.0000 C   0  0  0  0  0  0  0  0  0  0  0  0
    0.9681   -6.5147    0.0000 C   0  0  0  0  0  0  0  0  0  0  0  0
    0.4161   -5.9016    0.0000 C   0  0  0  0  0  0  0  0  0  0  0  0
    0.6710   -5.1170    0.0000 C   0  0  0  0  0  0  0  0  0  0  0  0
    1.4780   -4.9454    0.0000 C   0  0  0  0  0  0  0  0  0  0  0  0
    1.7329   -4.1608    0.0000 N   0  0  0  0  0  0  0  0  0  0  0  0
    1.1809   -3.5477    0.0000 C   0  0  0  0  0  0  0  0  0  0  0  0
    0.3739   -3.7192    0.0000 N   0  0  0  0  0  0  0  0  0  0  0  0
   -0.1781   -3.1062    0.0000 C   0  0  0  0  0  0  0  0  0  0  0  0
    0.0768   -2.3215    0.0000 C   0  0  0  0  0  0  0  0  0  0  0  0
    0.8838   -2.1500    0.0000 C   0  0  0  0  0  0  0  0  0  0  0  0
    1.4358   -2.7631    0.0000 N   0  0  0  0  0  0  0  0  0  0  0  0
    1.1387   -1.3654    0.0000 C   0  0  0  0  0  0  0  0  0  0  0  0
    0.6538   -0.6979    0.0000 C   0  0  0  0  0  0  0  0  0  0  0  0
    1.1387   -0.0305    0.0000 N   0  0  0  0  0  0  0  0  0  0  0  0
    1.9233   -0.2854    0.0000 N   0  0  0  0  0  0  0  0  0  0  0  0
    2.6378    0.1271    0.0000 N   0  0  0  0  0  0  0  0  0  0  0  0
    3.3523   -0.2854    0.0000 C   0  0  0  0  0  0  0  0  0  0  0  0
    3.3523   -1.1104    0.0000 C   0  0  0  0  0  0  0  0  0  0  0  0
    2.6378   -1.5229    0.0000 C   0  0  0  0  0  0  0  0  0  0  0  0
    1.9233   -1.1104    0.0000 C   0  0  0  0  0  0  0  0  0  0  0  0
    2.0300   -5.5585    0.0000 C   0  0  0  0  0  0  0  0  0  0  0  0
    1.7751   -6.3432    0.0000 C   0  0  0  0  0  0  0  0  0  0  0  0
  1  2  1  0
  2  3  1  0
  2  4  1  0
  4  5  2  0
  5  6  1  0
  6  7  2  0
  7  8  1  0
  8  9  1  0
  9 10  2  0
 10 11  1  0
 11 12  2  0
 12 13  1  0
 13 14  2  0
  9 14  1  0
 13 15  1  0
 15 16  1  0
 16 17  2  0
 17 18  1  0
 18 19  1  0
 19 20  2  0
 20 21  1  0
 21 22  2  0
 22 23  1  0
 15 23  2  0
 18 23  1  0
  7 24  1  0
 24 25  2  0
  4 25  1  0
M  END
>  <pIC50>  (174) 
7.40

>  <chembl_id>  (174) 
CHEMBL359963

>  <canonical_smiles>  (174) 
CC(C)c1ccc(Nc2nccc(n2)c3cnn4ncccc34)cc1

$$$$
CHEMBL360573
     RDKit          2D

 32 35  0  0  0  0  0  0  0  0999 V2000
   -1.0079    3.7125    0.0000 C   0  0  0  0  0  0  0  0  0  0  0  0
   -0.2934    4.1250    0.0000 N   0  0  0  0  0  0  0  0  0  0  0  0
   -0.2934    4.9500    0.0000 C   0  0  0  0  0  0  0  0  0  0  0  0
    0.4210    3.7125    0.0000 S   0  0  0  0  0  0  0  0  0  0  0  0
    0.0085    2.9980    0.0000 O   0  0  0  0  0  0  0  0  0  0  0  0
    0.8335    4.4270    0.0000 O   0  0  0  0  0  0  0  0  0  0  0  0
    1.1355    3.3000    0.0000 C   0  0  0  0  0  0  0  0  0  0  0  0
    1.8500    3.7125    0.0000 C   0  0  0  0  0  0  0  0  0  0  0  0
    2.5645    3.3000    0.0000 C   0  0  0  0  0  0  0  0  0  0  0  0
    2.5645    2.4750    0.0000 C   0  0  0  0  0  0  0  0  0  0  0  0
    3.2789    2.0625    0.0000 N   0  0  0  0  0  0  0  0  0  0  0  0
    3.2789    1.2375    0.0000 C   0  0  0  0  0  0  0  0  0  0  0  0
    3.9934    0.8250    0.0000 C   0  0  0  0  0  0  0  0  0  0  0  0
    3.9934    0.0000    0.0000 C   0  0  0  0  0  0  0  0  0  0  0  0
    4.7079   -0.4125    0.0000 N   0  0  0  0  0  0  0  0  0  0  0  0
    4.7079   -1.2375    0.0000 C   0  0  0  0  0  0  0  0  0  0  0  0
    5.4223   -1.6500    0.0000 C   0  0  0  0  0  0  0  0  0  0  0  0
    5.4223   -2.4750    0.0000 C   0  0  0  0  0  0  0  0  0  0  0  0
    4.7079   -2.8875    0.0000 C   0  0  0  0  0  0  0  0  0  0  0  0
    4.7079   -3.7125    0.0000 N   0  0  0  0  0  0  0  0  0  0  0  0
    3.9934   -2.4750    0.0000 C   0  0  0  0  0  0  0  0  0  0  0  0
    3.9934   -1.6500    0.0000 C   0  0  0  0  0  0  0  0  0  0  0  0
    3.2789   -0.4125    0.0000 N   0  0  0  0  0  0  0  0  0  0  0  0
    2.5645    0.0000    0.0000 C   0  0  0  0  0  0  0  0  0  0  0  0
    1.7798   -0.2549    0.0000 C   0  0  0  0  0  0  0  0  0  0  0  0
    1.2949    0.4125    0.0000 C   0  0  0  0  0  0  0  0  0  0  0  0
    1.7798    1.0799    0.0000 N   0  0  0  0  0  0  0  0  0  0  0  0
    2.5645    0.8250    0.0000 N   0  0  0  0  0  0  0  0  0  0  0  0
    1.5249   -1.0396    0.0000 C   0  0  0  0  0  0  0  0  0  0  0  0
    1.2700   -1.8242    0.0000 N   0  0  0  0  0  0  0  0  0  0  0  0
    1.8500    2.0625    0.0000 C   0  0  0  0  0  0  0  0  0  0  0  0
    1.1355    2.4750    0.0000 C   0  0  0  0  0  0  0  0  0  0  0  0
  1  2  1  0
  2  3  1  0
  2  4  1  0
  4  5  2  0
  4  6  2  0
  4  7  1  0
  7  8  2  0
  8  9  1  0
  9 10  2  0
 10 11  1  0
 11 12  1  0
 12 13  2  0
 13 14  1  0
 14 15  1  0
 16 15  1  6
 16 17  1  0
 17 18  1  0
 19 18  1  0
 19 20  1  1
 19 21  1  0
 21 22  1  0
 16 22  1  0
 14 23  2  0
 23 24  1  0
 24 25  2  0
 25 26  1  0
 26 27  2  0
 27 28  1  0
 12 28  1  0
 24 28  1  0
 25 29  1  0
 29 30  3  0
 10 31  1  0
 31 32  2  0
  7 32  1  0
M  END
>  <pIC50>  (175) 
8.15

>  <chembl_id>  (175) 
CHEMBL360573

>  <canonical_smiles>  (175) 
CN(C)S(=O)(=O)c1ccc(Nc2cc(N[C@@H]3CC[C@@H](N)CC3)nc4c(cnn24)C#N)cc1

$$$$
CHEMBL361231
     RDKit          2D

 30 32  0  0  0  0  0  0  0  0999 V2000
    4.7812    4.4104    0.0000 C   0  0  0  0  0  0  0  0  0  0  0  0
    4.7812    3.5854    0.0000 C   0  0  0  0  0  0  0  0  0  0  0  0
    5.4957    3.1729    0.0000 C   0  0  0  0  0  0  0  0  0  0  0  0
    4.0668    3.1729    0.0000 C   0  0  0  0  0  0  0  0  0  0  0  0
    4.0668    2.3479    0.0000 O   0  0  0  0  0  0  0  0  0  0  0  0
    3.3523    1.9354    0.0000 C   0  0  0  0  0  0  0  0  0  0  0  0
    3.3523    1.1104    0.0000 C   0  0  0  0  0  0  0  0  0  0  0  0
    2.6378    0.6979    0.0000 C   0  0  0  0  0  0  0  0  0  0  0  0
    2.6378   -0.1271    0.0000 N   0  0  0  0  0  0  0  0  0  0  0  0
    1.9233   -0.5396    0.0000 C   0  0  0  0  0  0  0  0  0  0  0  0
    1.9233   -1.3646    0.0000 C   0  0  0  0  0  0  0  0  0  0  0  0
    1.2089   -1.7771    0.0000 C   0  0  0  0  0  0  0  0  0  0  0  0
    0.4944   -1.3646    0.0000 C   0  0  0  0  0  0  0  0  0  0  0  0
    0.4944   -0.5396    0.0000 C   0  0  0  0  0  0  0  0  0  0  0  0
    1.2089   -0.1271    0.0000 C   0  0  0  0  0  0  0  0  0  0  0  0
   -0.2201   -1.7771    0.0000 S   0  0  0  0  0  0  0  0  0  0  0  0
   -0.6326   -1.0626    0.0000 O   0  0  0  0  0  0  0  0  0  0  0  0
    0.1924   -2.4915    0.0000 O   0  0  0  0  0  0  0  0  0  0  0  0
   -0.9345   -2.1896    0.0000 N   0  0  0  0  0  0  0  0  0  0  0  0
   -0.9345   -3.0146    0.0000 C   0  0  0  0  0  0  0  0  0  0  0  0
   -1.6490   -1.7771    0.0000 C   0  0  0  0  0  0  0  0  0  0  0  0
    1.9233    1.1104    0.0000 N   0  0  0  0  0  0  0  0  0  0  0  0
    1.1387    0.8555    0.0000 N   0  0  0  0  0  0  0  0  0  0  0  0
    0.6538    1.5229    0.0000 C   0  0  0  0  0  0  0  0  0  0  0  0
    1.1387    2.1904    0.0000 C   0  0  0  0  0  0  0  0  0  0  0  0
    0.8838    2.9750    0.0000 C   0  0  0  0  0  0  0  0  0  0  0  0
    1.4358    3.5881    0.0000 C   0  0  0  0  0  0  0  0  0  0  0  0
    0.0768    3.1465    0.0000 C   0  0  0  0  0  0  0  0  0  0  0  0
    1.9233    1.9354    0.0000 C   0  0  0  0  0  0  0  0  0  0  0  0
    2.6378    2.3479    0.0000 N   0  0  0  0  0  0  0  0  0  0  0  0
  1  2  1  0
  2  3  1  0
  2  4  1  0
  4  5  1  0
  5  6  1  0
  6  7  1  0
  7  8  2  0
  8  9  1  0
  9 10  1  0
 10 11  2  0
 11 12  1  0
 12 13  2  0
 13 14  1  0
 14 15  2  0
 10 15  1  0
 13 16  1  0
 16 17  2  0
 16 18  2  0
 16 19  1  0
 19 20  1  0
 19 21  1  0
  8 22  1  0
 22 23  1  0
 23 24  2  0
 24 25  1  0
 25 26  1  0
 26 27  1  0
 26 28  1  0
 25 29  2  0
 22 29  1  0
 29 30  1  0
  6 30  2  0
M  END
>  <pIC50>  (176) 
5.92

>  <chembl_id>  (176) 
CHEMBL361231

>  <canonical_smiles>  (176) 
CC(C)COc1cc(Nc2ccc(cc2)S(=O)(=O)N(C)C)n3ncc(C(C)C)c3n1

$$$$
CHEMBL361348
     RDKit          2D

 33 36  0  0  0  0  0  0  0  0999 V2000
    1.4358   -2.7631    0.0000 C   0  0  0  0  0  0  0  0  0  0  0  0
    0.8838   -2.1500    0.0000 C   0  0  0  0  0  0  0  0  0  0  0  0
    0.0768   -2.3215    0.0000 C   0  0  0  0  0  0  0  0  0  0  0  0
    1.1387   -1.3654    0.0000 C   0  0  0  0  0  0  0  0  0  0  0  0
    0.6538   -0.6979    0.0000 C   0  0  0  0  0  0  0  0  0  0  0  0
    1.1387   -0.0305    0.0000 N   0  0  0  0  0  0  0  0  0  0  0  0
    1.9233   -0.2854    0.0000 N   0  0  0  0  0  0  0  0  0  0  0  0
    2.6378    0.1271    0.0000 C   0  0  0  0  0  0  0  0  0  0  0  0
    2.6378    0.9521    0.0000 N   0  0  0  0  0  0  0  0  0  0  0  0
    1.9233    1.3646    0.0000 C   0  0  0  0  0  0  0  0  0  0  0  0
    1.2089    0.9521    0.0000 C   0  0  0  0  0  0  0  0  0  0  0  0
    0.4944    1.3646    0.0000 C   0  0  0  0  0  0  0  0  0  0  0  0
    0.4944    2.1896    0.0000 C   0  0  0  0  0  0  0  0  0  0  0  0
    1.2089    2.6021    0.0000 C   0  0  0  0  0  0  0  0  0  0  0  0
    1.9233    2.1896    0.0000 C   0  0  0  0  0  0  0  0  0  0  0  0
   -0.2201    2.6021    0.0000 S   0  0  0  0  0  0  0  0  0  0  0  0
   -0.6326    1.8876    0.0000 O   0  0  0  0  0  0  0  0  0  0  0  0
    0.1924    3.3165    0.0000 O   0  0  0  0  0  0  0  0  0  0  0  0
   -0.9345    3.0146    0.0000 N   0  0  0  0  0  0  0  0  0  0  0  0
   -0.9345    3.8396    0.0000 C   0  0  0  0  0  0  0  0  0  0  0  0
   -1.6490    2.6021    0.0000 C   0  0  0  0  0  0  0  0  0  0  0  0
    3.3523   -0.2854    0.0000 C   0  0  0  0  0  0  0  0  0  0  0  0
    3.3523   -1.1104    0.0000 C   0  0  0  0  0  0  0  0  0  0  0  0
    4.0668   -1.5229    0.0000 N   0  0  0  0  0  0  0  0  0  0  0  0
    4.0668   -2.3479    0.0000 C   0  0  0  0  0  0  0  0  0  0  0  0
    4.7812   -2.7604    0.0000 C   0  0  0  0  0  0  0  0  0  0  0  0
    4.7812   -3.5854    0.0000 C   0  0  0  0  0  0  0  0  0  0  0  0
    4.0668   -3.9979    0.0000 C   0  0  0  0  0  0  0  0  0  0  0  0
    4.0668   -4.8229    0.0000 N   0  0  0  0  0  0  0  0  0  0  0  0
    3.3523   -3.5854    0.0000 C   0  0  0  0  0  0  0  0  0  0  0  0
    3.3523   -2.7604    0.0000 C   0  0  0  0  0  0  0  0  0  0  0  0
    2.6378   -1.5229    0.0000 N   0  0  0  0  0  0  0  0  0  0  0  0
    1.9233   -1.1104    0.0000 C   0  0  0  0  0  0  0  0  0  0  0  0
  1  2  1  0
  2  3  1  0
  2  4  1  0
  4  5  1  0
  5  6  2  0
  6  7  1  0
  7  8  1  0
  8  9  1  0
  9 10  1  0
 10 11  2  0
 11 12  1  0
 12 13  2  0
 13 14  1  0
 14 15  2  0
 10 15  1  0
 13 16  1  0
 16 17  2  0
 16 18  2  0
 16 19  1  0
 19 20  1  0
 19 21  1  0
  8 22  2  0
 22 23  1  0
 23 24  1  0
 25 24  1  6
 25 26  1  0
 26 27  1  0
 28 27  1  0
 28 29  1  1
 28 30  1  0
 30 31  1  0
 25 31  1  0
 23 32  2  0
 32 33  1  0
  4 33  2  0
  7 33  1  0
M  END
>  <pIC50>  (177) 
7.23

>  <chembl_id>  (177) 
CHEMBL361348

>  <canonical_smiles>  (177) 
CC(C)c1cnn2c(Nc3ccc(cc3)S(=O)(=O)N(C)C)cc(N[C@@H]4CC[C@@H](N)CC4)nc12

$$$$
CHEMBL3616877
     RDKit          2D

 36 38  0  0  0  0  0  0  0  0999 V2000
    5.7158   -0.8250    0.0000 C   0  0  0  0  0  0  0  0  0  0  0  0
    5.7158   -1.6500    0.0000 C   0  0  0  0  0  0  0  0  0  0  0  0
    6.4302   -2.0625    0.0000 O   0  0  0  0  0  0  0  0  0  0  0  0
    6.4302   -2.8875    0.0000 C   0  0  0  0  0  0  0  0  0  0  0  0
    7.1447   -3.3000    0.0000 C   0  0  0  0  0  0  0  0  0  0  0  0
    7.1447   -4.1250    0.0000 C   0  0  0  0  0  0  0  0  0  0  0  0
    6.4302   -4.5375    0.0000 C   0  0  0  0  0  0  0  0  0  0  0  0
    5.7158   -4.1250    0.0000 C   0  0  0  0  0  0  0  0  0  0  0  0
    5.0013   -4.5375    0.0000 O   0  0  0  0  0  0  0  0  0  0  0  0
    5.0013   -5.3625    0.0000 C   0  0  0  0  0  0  0  0  0  0  0  0
    4.2868   -5.7750    0.0000 C   0  0  0  0  0  0  0  0  0  0  0  0
    5.7158   -3.3000    0.0000 C   0  0  0  0  0  0  0  0  0  0  0  0
    5.0013   -2.8875    0.0000 O   0  0  0  0  0  0  0  0  0  0  0  0
    5.0013   -2.0625    0.0000 C   0  0  0  0  0  0  0  0  0  0  0  0
    4.2868   -1.6500    0.0000 C   0  0  0  0  0  0  0  0  0  0  0  0
    7.8592   -4.5375    0.0000 C   0  0  0  0  0  0  0  0  0  0  0  0
    7.8592   -5.3625    0.0000 O   0  0  0  0  0  0  0  0  0  0  0  0
    8.5737   -4.1250    0.0000 N   0  0  0  0  0  0  0  0  0  0  0  0
    9.2881   -4.5375    0.0000 C   0  0  0  0  0  0  0  0  0  0  0  0
   10.0026   -4.1250    0.0000 C   0  0  0  0  0  0  0  0  0  0  0  0
   10.7171   -4.5375    0.0000 C   0  0  0  0  0  0  0  0  0  0  0  0
   10.7171   -5.3625    0.0000 C   0  0  0  0  0  0  0  0  0  0  0  0
   10.0026   -5.7750    0.0000 C   0  0  0  0  0  0  0  0  0  0  0  0
    9.2881   -5.3625    0.0000 C   0  0  0  0  0  0  0  0  0  0  0  0
   11.4315   -5.7750    0.0000 S   0  0  0  0  0  0  0  0  0  0  0  0
   11.0190   -6.4895    0.0000 O   0  0  0  0  0  0  0  0  0  0  0  0
   11.8440   -5.0605    0.0000 O   0  0  0  0  0  0  0  0  0  0  0  0
   12.1460   -6.1875    0.0000 N   0  0  0  0  0  0  0  0  0  0  0  0
   12.1460   -7.0125    0.0000 C   0  0  0  0  0  0  0  0  0  0  0  0
   12.8605   -7.4250    0.0000 N   0  0  0  0  0  0  0  0  0  0  0  0
   12.8605   -8.2500    0.0000 C   0  0  0  0  0  0  0  0  0  0  0  0
   13.5749   -8.6625    0.0000 C   0  0  0  0  0  0  0  0  0  0  0  0
   12.1460   -8.6625    0.0000 C   0  0  0  0  0  0  0  0  0  0  0  0
   11.4315   -8.2500    0.0000 C   0  0  0  0  0  0  0  0  0  0  0  0
   10.7171   -8.6625    0.0000 C   0  0  0  0  0  0  0  0  0  0  0  0
   11.4315   -7.4250    0.0000 N   0  0  0  0  0  0  0  0  0  0  0  0
  1  2  1  0
  2  3  1  0
  3  4  1  0
  4  5  2  0
  5  6  1  0
  6  7  2  0
  7  8  1  0
  8  9  1  0
  9 10  1  0
 10 11  1  0
  8 12  2  0
  4 12  1  0
 12 13  1  0
 13 14  1  0
 14 15  1  0
  6 16  1  0
 16 17  2  0
 16 18  1  0
 18 19  1  0
 19 20  2  0
 20 21  1  0
 21 22  2  0
 22 23  1  0
 23 24  2  0
 19 24  1  0
 22 25  1  0
 25 26  2  0
 25 27  2  0
 25 28  1  0
 28 29  1  0
 29 30  2  0
 30 31  1  0
 31 32  1  0
 31 33  2  0
 33 34  1  0
 34 35  1  0
 34 36  2  0
 29 36  1  0
M  END
>  <pIC50>  (178) 
3.98

>  <chembl_id>  (178) 
CHEMBL3616877

>  <canonical_smiles>  (178) 
CCOc1cc(cc(OCC)c1OCC)C(=O)Nc2ccc(cc2)S(=O)(=O)Nc3nc(C)cc(C)n3

$$$$
CHEMBL361833
     RDKit          2D

 34 38  0  0  0  0  0  0  0  0999 V2000
    4.0668    5.6479    0.0000 N   0  0  0  0  0  0  0  0  0  0  0  0
    4.0668    4.8229    0.0000 C   0  0  0  0  0  0  0  0  0  0  0  0
    4.7812    4.4104    0.0000 C   0  0  0  0  0  0  0  0  0  0  0  0
    4.7812    3.5854    0.0000 C   0  0  0  0  0  0  0  0  0  0  0  0
    4.0668    3.1729    0.0000 C   0  0  0  0  0  0  0  0  0  0  0  0
    3.3523    3.5854    0.0000 C   0  0  0  0  0  0  0  0  0  0  0  0
    3.3523    4.4104    0.0000 C   0  0  0  0  0  0  0  0  0  0  0  0
    4.0668    2.3479    0.0000 N   0  0  0  0  0  0  0  0  0  0  0  0
    3.3523    1.9354    0.0000 C   0  0  0  0  0  0  0  0  0  0  0  0
    3.3523    1.1104    0.0000 C   0  0  0  0  0  0  0  0  0  0  0  0
    2.6378    0.6979    0.0000 C   0  0  0  0  0  0  0  0  0  0  0  0
    2.6378   -0.1271    0.0000 N   0  0  0  0  0  0  0  0  0  0  0  0
    1.9233   -0.5396    0.0000 C   0  0  0  0  0  0  0  0  0  0  0  0
    1.9233   -1.3646    0.0000 C   0  0  0  0  0  0  0  0  0  0  0  0
    1.2089   -1.7771    0.0000 C   0  0  0  0  0  0  0  0  0  0  0  0
    0.4944   -1.3646    0.0000 C   0  0  0  0  0  0  0  0  0  0  0  0
    0.4944   -0.5396    0.0000 C   0  0  0  0  0  0  0  0  0  0  0  0
    1.2089   -0.1271    0.0000 C   0  0  0  0  0  0  0  0  0  0  0  0
   -0.2201   -1.7771    0.0000 S   0  0  0  0  0  0  0  0  0  0  0  0
   -0.6326   -1.0626    0.0000 O   0  0  0  0  0  0  0  0  0  0  0  0
    0.1924   -2.4915    0.0000 O   0  0  0  0  0  0  0  0  0  0  0  0
   -0.9345   -2.1896    0.0000 C   0  0  0  0  0  0  0  0  0  0  0  0
   -0.9345   -3.0146    0.0000 C   0  0  0  0  0  0  0  0  0  0  0  0
   -1.6490   -3.4271    0.0000 C   0  0  0  0  0  0  0  0  0  0  0  0
   -2.3635   -3.0146    0.0000 C   0  0  0  0  0  0  0  0  0  0  0  0
   -2.3635   -2.1896    0.0000 C   0  0  0  0  0  0  0  0  0  0  0  0
   -1.6490   -1.7771    0.0000 C   0  0  0  0  0  0  0  0  0  0  0  0
    1.9233    1.1104    0.0000 N   0  0  0  0  0  0  0  0  0  0  0  0
    1.1387    0.8555    0.0000 N   0  0  0  0  0  0  0  0  0  0  0  0
    0.6538    1.5229    0.0000 C   0  0  0  0  0  0  0  0  0  0  0  0
    1.1387    2.1904    0.0000 C   0  0  0  0  0  0  0  0  0  0  0  0
    0.8838    2.9750    0.0000 Br  0  0  0  0  0  0  0  0  0  0  0  0
    1.9233    1.9354    0.0000 C   0  0  0  0  0  0  0  0  0  0  0  0
    2.6378    2.3479    0.0000 N   0  0  0  0  0  0  0  0  0  0  0  0
  2  1  1  6
  2  3  1  0
  3  4  1  0
  5  4  1  0
  5  6  1  0
  6  7  1  0
  2  7  1  0
  5  8  1  1
  8  9  1  0
  9 10  1  0
 10 11  2  0
 11 12  1  0
 12 13  1  0
 13 14  2  0
 14 15  1  0
 15 16  2  0
 16 17  1  0
 17 18  2  0
 13 18  1  0
 16 19  1  0
 19 20  2  0
 19 21  2  0
 19 22  1  0
 22 23  2  0
 23 24  1  0
 24 25  2  0
 25 26  1  0
 26 27  2  0
 22 27  1  0
 11 28  1  0
 28 29  1  0
 29 30  2  0
 30 31  1  0
 31 32  1  0
 31 33  2  0
 28 33  1  0
 33 34  1  0
  9 34  2  0
M  END
>  <pIC50>  (179) 
7.80

>  <chembl_id>  (179) 
CHEMBL361833

>  <canonical_smiles>  (179) 
N[C@@H]1CC[C@H](CC1)Nc2cc(Nc3ccc(cc3)S(=O)(=O)c4ccccc4)n5ncc(Br)c5n2

$$$$
CHEMBL3621496
     RDKit          2D

 32 36  0  0  0  0  0  0  0  0999 V2000
    5.7871   -3.0690    0.0000 C   0  0  0  0  0  0  0  0  0  0  0  0
    5.5322   -2.2844    0.0000 N   0  0  0  0  0  0  0  0  0  0  0  0
    4.7252   -2.1129    0.0000 C   0  0  0  0  0  0  0  0  0  0  0  0
    4.4703   -1.3283    0.0000 C   0  0  0  0  0  0  0  0  0  0  0  0
    5.0223   -0.7152    0.0000 N   0  0  0  0  0  0  0  0  0  0  0  0
    5.8293   -0.8867    0.0000 C   0  0  0  0  0  0  0  0  0  0  0  0
    6.0842   -1.6713    0.0000 C   0  0  0  0  0  0  0  0  0  0  0  0
    4.7674    0.0694    0.0000 C   0  0  0  0  0  0  0  0  0  0  0  0
    5.3194    0.6825    0.0000 O   0  0  0  0  0  0  0  0  0  0  0  0
    3.9604    0.2410    0.0000 C   0  0  0  0  0  0  0  0  0  0  0  0
    3.7054    1.0256    0.0000 C   0  0  0  0  0  0  0  0  0  0  0  0
    2.8985    1.1971    0.0000 C   0  0  0  0  0  0  0  0  0  0  0  0
    2.3464    0.5840    0.0000 C   0  0  0  0  0  0  0  0  0  0  0  0
    2.6014   -0.2006    0.0000 C   0  0  0  0  0  0  0  0  0  0  0  0
    3.4084   -0.3721    0.0000 C   0  0  0  0  0  0  0  0  0  0  0  0
    1.9339   -0.6855    0.0000 N   0  0  0  0  0  0  0  0  0  0  0  0
    1.2665   -0.2006    0.0000 C   0  0  0  0  0  0  0  0  0  0  0  0
    0.4595   -0.3721    0.0000 C   0  0  0  0  0  0  0  0  0  0  0  0
   -0.0925    0.2410    0.0000 C   0  0  0  0  0  0  0  0  0  0  0  0
    0.1624    1.0256    0.0000 C   0  0  0  0  0  0  0  0  0  0  0  0
    0.9694    1.1971    0.0000 C   0  0  0  0  0  0  0  0  0  0  0  0
    1.2243    1.9817    0.0000 C   0  0  0  0  0  0  0  0  0  0  0  0
    0.6723    2.5948    0.0000 C   0  0  0  0  0  0  0  0  0  0  0  0
    0.9273    3.3795    0.0000 C   0  0  0  0  0  0  0  0  0  0  0  0
    1.7342    3.5510    0.0000 C   0  0  0  0  0  0  0  0  0  0  0  0
    2.2863    2.9379    0.0000 C   0  0  0  0  0  0  0  0  0  0  0  0
    2.0313    2.1533    0.0000 C   0  0  0  0  0  0  0  0  0  0  0  0
    2.5834    1.5402    0.0000 F   0  0  0  0  0  0  0  0  0  0  0  0
    1.5214    0.5840    0.0000 C   0  0  0  0  0  0  0  0  0  0  0  0
    0.2046   -1.1567    0.0000 C   0  0  0  0  0  0  0  0  0  0  0  0
   -0.6024   -1.3283    0.0000 O   0  0  0  0  0  0  0  0  0  0  0  0
    0.7566   -1.7698    0.0000 N   0  0  0  0  0  0  0  0  0  0  0  0
  1  2  1  0
  2  3  1  0
  3  4  1  0
  4  5  1  0
  5  6  1  0
  6  7  1  0
  2  7  1  0
  5  8  1  0
  8  9  2  0
  8 10  1  0
 10 11  2  0
 11 12  1  0
 12 13  2  0
 13 14  1  0
 14 15  2  0
 10 15  1  0
 14 16  1  0
 16 17  1  0
 17 18  2  0
 18 19  1  0
 19 20  2  0
 20 21  1  0
 21 22  1  0
 22 23  2  0
 23 24  1  0
 24 25  2  0
 25 26  1  0
 26 27  2  0
 22 27  1  0
 27 28  1  0
 21 29  2  0
 13 29  1  0
 17 29  1  0
 18 30  1  0
 30 31  2  0
 30 32  1  0
M  END
>  <pIC50>  (180) 
6.21

>  <chembl_id>  (180) 
CHEMBL3621496

>  <canonical_smiles>  (180) 
CN1CCN(CC1)C(=O)c2ccc3c(c2)[nH]c4c(ccc(c5ccccc5F)c34)C(=O)N

$$$$
CHEMBL3621515
     RDKit          2D

 36 40  0  0  0  0  0  0  0  0999 V2000
    5.7871   -3.0690    0.0000 C   0  0  0  0  0  0  0  0  0  0  0  0
    5.5322   -2.2844    0.0000 N   0  0  0  0  0  0  0  0  0  0  0  0
    4.7252   -2.1129    0.0000 C   0  0  0  0  0  0  0  0  0  0  0  0
    4.4703   -1.3283    0.0000 C   0  0  0  0  0  0  0  0  0  0  0  0
    5.0223   -0.7152    0.0000 N   0  0  0  0  0  0  0  0  0  0  0  0
    5.8293   -0.8867    0.0000 C   0  0  0  0  0  0  0  0  0  0  0  0
    6.0842   -1.6713    0.0000 C   0  0  0  0  0  0  0  0  0  0  0  0
    4.7674    0.0694    0.0000 C   0  0  0  0  0  0  0  0  0  0  0  0
    5.3194    0.6825    0.0000 O   0  0  0  0  0  0  0  0  0  0  0  0
    3.9604    0.2410    0.0000 C   0  0  0  0  0  0  0  0  0  0  0  0
    3.7054    1.0256    0.0000 C   0  0  0  0  0  0  0  0  0  0  0  0
    2.8985    1.1971    0.0000 C   0  0  0  0  0  0  0  0  0  0  0  0
    2.3464    0.5840    0.0000 C   0  0  0  0  0  0  0  0  0  0  0  0
    2.6014   -0.2006    0.0000 C   0  0  0  0  0  0  0  0  0  0  0  0
    3.4084   -0.3721    0.0000 C   0  0  0  0  0  0  0  0  0  0  0  0
    1.9339   -0.6855    0.0000 N   0  0  0  0  0  0  0  0  0  0  0  0
    1.2665   -0.2006    0.0000 C   0  0  0  0  0  0  0  0  0  0  0  0
    0.4595   -0.3721    0.0000 C   0  0  0  0  0  0  0  0  0  0  0  0
   -0.0925    0.2410    0.0000 C   0  0  0  0  0  0  0  0  0  0  0  0
    0.1624    1.0256    0.0000 C   0  0  0  0  0  0  0  0  0  0  0  0
    0.9694    1.1971    0.0000 C   0  0  0  0  0  0  0  0  0  0  0  0
    1.2243    1.9817    0.0000 C   0  0  0  0  0  0  0  0  0  0  0  0
    0.6723    2.5948    0.0000 C   0  0  0  0  0  0  0  0  0  0  0  0
    0.9273    3.3795    0.0000 C   0  0  0  0  0  0  0  0  0  0  0  0
    1.7342    3.5510    0.0000 C   0  0  0  0  0  0  0  0  0  0  0  0
    2.2863    2.9379    0.0000 C   0  0  0  0  0  0  0  0  0  0  0  0
    3.0932    3.1094    0.0000 N   0  0  0  0  0  0  0  0  0  0  0  0
    3.6453    2.4963    0.0000 C   0  0  0  0  0  0  0  0  0  0  0  0
    4.4522    2.6679    0.0000 O   0  0  0  0  0  0  0  0  0  0  0  0
    3.3903    1.7117    0.0000 C   0  0  0  0  0  0  0  0  0  0  0  0
    2.0313    2.1533    0.0000 C   0  0  0  0  0  0  0  0  0  0  0  0
    2.5834    1.5402    0.0000 C   0  0  0  0  0  0  0  0  0  0  0  0
    1.5214    0.5840    0.0000 C   0  0  0  0  0  0  0  0  0  0  0  0
    0.2046   -1.1567    0.0000 C   0  0  0  0  0  0  0  0  0  0  0  0
   -0.6024   -1.3283    0.0000 O   0  0  0  0  0  0  0  0  0  0  0  0
    0.7566   -1.7698    0.0000 N   0  0  0  0  0  0  0  0  0  0  0  0
  1  2  1  0
  2  3  1  0
  3  4  1  0
  4  5  1  0
  5  6  1  0
  6  7  1  0
  2  7  1  0
  5  8  1  0
  8  9  2  0
  8 10  1  0
 10 11  2  0
 11 12  1  0
 12 13  2  0
 13 14  1  0
 14 15  2  0
 10 15  1  0
 14 16  1  0
 16 17  1  0
 17 18  2  0
 18 19  1  0
 19 20  2  0
 20 21  1  0
 21 22  1  0
 22 23  2  0
 23 24  1  0
 24 25  2  0
 25 26  1  0
 26 27  1  0
 27 28  1  0
 28 29  2  0
 28 30  1  0
 26 31  2  0
 22 31  1  0
 31 32  1  0
 21 33  2  0
 13 33  1  0
 17 33  1  0
 18 34  1  0
 34 35  2  0
 34 36  1  0
M  END
>  <pIC50>  (181) 
5.57

>  <chembl_id>  (181) 
CHEMBL3621515

>  <canonical_smiles>  (181) 
CN1CCN(CC1)C(=O)c2ccc3c(c2)[nH]c4c(ccc(c5cccc(NC(=O)C)c5C)c34)C(=O)N

$$$$
CHEMBL362558
     RDKit          2D

 38 44  0  0  0  0  0  0  0  0999 V2000
    0.1424    1.9359    0.0000 F   0  0  0  0  0  0  0  0  0  0  0  0
    0.8700    1.5469    0.0000 C   0  0  0  0  0  0  0  0  0  0  0  0
    1.5706    1.9825    0.0000 C   0  0  0  0  0  0  0  0  0  0  0  0
    2.3475    1.5936    0.0000 C   0  0  0  0  0  0  0  0  0  0  0  0
    3.0063    2.0903    0.0000 C   0  0  0  0  0  0  0  0  0  0  0  0
    3.8053    1.8848    0.0000 N   0  0  0  0  0  0  0  0  0  0  0  0
    4.1429    1.1321    0.0000 C   0  0  0  0  0  0  0  0  0  0  0  0
    3.7648    0.3988    0.0000 C   0  0  0  0  0  0  0  0  0  0  0  0
    2.9558    0.2372    0.0000 N   0  0  0  0  0  0  0  0  0  0  0  0
    2.6450   -0.5270    0.0000 C   0  0  0  0  0  0  0  0  0  0  0  0
    1.8221   -0.4676    0.0000 C   0  0  0  0  0  0  0  0  0  0  0  0
    1.2904   -1.0983    0.0000 C   0  0  0  0  0  0  0  0  0  0  0  0
    1.4881   -1.8993    0.0000 C   0  0  0  0  0  0  0  0  0  0  0  0
    0.7875   -2.3348    0.0000 C   0  0  0  0  0  0  0  0  0  0  0  0
    0.7280   -3.1577    0.0000 O   0  0  0  0  0  0  0  0  0  0  0  0
    0.1567   -1.8031    0.0000 N   0  0  0  0  0  0  0  0  0  0  0  0
    0.4675   -1.0389    0.0000 C   0  0  0  0  0  0  0  0  0  0  0  0
    0.0319   -0.3382    0.0000 O   0  0  0  0  0  0  0  0  0  0  0  0
    2.2523   -2.2101    0.0000 C   0  0  0  0  0  0  0  0  0  0  0  0
    2.9530   -1.7745    0.0000 C   0  0  0  0  0  0  0  0  0  0  0  0
    3.5837   -2.3063    0.0000 N   0  0  0  0  0  0  0  0  0  0  0  0
    3.2729   -3.0705    0.0000 C   0  0  0  0  0  0  0  0  0  0  0  0
    3.6328   -3.8128    0.0000 C   0  0  0  0  0  0  0  0  0  0  0  0
    3.1699   -4.4957    0.0000 C   0  0  0  0  0  0  0  0  0  0  0  0
    2.3471   -4.4363    0.0000 C   0  0  0  0  0  0  0  0  0  0  0  0
    1.9871   -3.6939    0.0000 C   0  0  0  0  0  0  0  0  0  0  0  0
    2.4500   -3.0110    0.0000 N   0  0  0  0  0  0  0  0  0  0  0  0
    1.6244    0.3334    0.0000 C   0  0  0  0  0  0  0  0  0  0  0  0
    0.8968    0.7224    0.0000 C   0  0  0  0  0  0  0  0  0  0  0  0
    2.3250    0.7690    0.0000 C   0  0  0  0  0  0  0  0  0  0  0  0
    4.3371    2.5156    0.0000 C   0  0  0  0  0  0  0  0  0  0  0  0
    4.0567    3.2915    0.0000 O   0  0  0  0  0  0  0  0  0  0  0  0
    5.1492    2.3705    0.0000 N   0  0  0  0  0  0  0  0  0  0  0  0
    5.6809    3.0012    0.0000 C   0  0  0  0  0  0  0  0  0  0  0  0
    6.4931    2.8561    0.0000 C   0  0  0  0  0  0  0  0  0  0  0  0
    6.7735    2.0802    0.0000 C   0  0  0  0  0  0  0  0  0  0  0  0
    6.2417    1.4494    0.0000 C   0  0  0  0  0  0  0  0  0  0  0  0
    5.4296    1.5946    0.0000 C   0  0  0  0  0  0  0  0  0  0  0  0
  1  2  1  0
  2  3  2  0
  3  4  1  0
  4  5  1  0
  5  6  1  0
  6  7  1  0
  7  8  1  0
  8  9  1  0
  9 10  1  0
 10 11  2  0
 11 12  1  0
 12 13  2  0
 13 14  1  0
 14 15  2  0
 14 16  1  0
 16 17  1  0
 12 17  1  0
 17 18  2  0
 13 19  1  0
 19 20  2  0
 20 21  1  0
 21 22  2  0
 22 23  1  0
 23 24  2  0
 24 25  1  0
 25 26  2  0
 26 27  1  0
 19 27  1  0
 22 27  1  0
 11 28  1  0
 28 29  2  0
  2 29  1  0
 28 30  1  0
  4 30  2  0
  9 30  1  0
  6 31  1  0
 31 32  2  0
 31 33  1  0
 33 34  1  0
 34 35  1  0
 35 36  1  0
 36 37  1  0
 37 38  1  0
 33 38  1  0
M  END
>  <pIC50>  (182) 
5.55

>  <chembl_id>  (182) 
CHEMBL362558

>  <canonical_smiles>  (182) 
Fc1cc2CN(CCn3cc(C4=C(C(=O)NC4=O)c5cnc6ccccn56)c(c1)c23)C(=O)N7CCCCC7

$$$$
CHEMBL362588
     RDKit          2D

 37 43  0  0  0  0  0  0  0  0999 V2000
    5.1492    2.3705    0.0000 O   0  0  0  0  0  0  0  0  0  0  0  0
    4.3371    2.5156    0.0000 C   0  0  0  0  0  0  0  0  0  0  0  0
    4.0567    3.2915    0.0000 N   0  0  0  0  0  0  0  0  0  0  0  0
    3.2445    3.4366    0.0000 C   0  0  0  0  0  0  0  0  0  0  0  0
    2.9642    4.2125    0.0000 C   0  0  0  0  0  0  0  0  0  0  0  0
    3.4959    4.8433    0.0000 C   0  0  0  0  0  0  0  0  0  0  0  0
    4.3081    4.6982    0.0000 C   0  0  0  0  0  0  0  0  0  0  0  0
    4.5884    3.9223    0.0000 C   0  0  0  0  0  0  0  0  0  0  0  0
    3.8053    1.8848    0.0000 N   0  0  0  0  0  0  0  0  0  0  0  0
    4.1429    1.1321    0.0000 C   0  0  0  0  0  0  0  0  0  0  0  0
    3.7648    0.3988    0.0000 C   0  0  0  0  0  0  0  0  0  0  0  0
    2.9558    0.2372    0.0000 N   0  0  0  0  0  0  0  0  0  0  0  0
    2.6450   -0.5270    0.0000 C   0  0  0  0  0  0  0  0  0  0  0  0
    1.8221   -0.4676    0.0000 C   0  0  0  0  0  0  0  0  0  0  0  0
    1.2904   -1.0983    0.0000 C   0  0  0  0  0  0  0  0  0  0  0  0
    1.4881   -1.8993    0.0000 C   0  0  0  0  0  0  0  0  0  0  0  0
    0.7875   -2.3348    0.0000 C   0  0  0  0  0  0  0  0  0  0  0  0
    0.7280   -3.1577    0.0000 O   0  0  0  0  0  0  0  0  0  0  0  0
    0.1567   -1.8031    0.0000 N   0  0  0  0  0  0  0  0  0  0  0  0
    0.4675   -1.0389    0.0000 C   0  0  0  0  0  0  0  0  0  0  0  0
    0.0319   -0.3382    0.0000 O   0  0  0  0  0  0  0  0  0  0  0  0
    2.2523   -2.2101    0.0000 C   0  0  0  0  0  0  0  0  0  0  0  0
    2.9530   -1.7745    0.0000 C   0  0  0  0  0  0  0  0  0  0  0  0
    3.5837   -2.3063    0.0000 N   0  0  0  0  0  0  0  0  0  0  0  0
    3.2729   -3.0705    0.0000 C   0  0  0  0  0  0  0  0  0  0  0  0
    3.6328   -3.8128    0.0000 C   0  0  0  0  0  0  0  0  0  0  0  0
    3.1699   -4.4957    0.0000 C   0  0  0  0  0  0  0  0  0  0  0  0
    2.3471   -4.4363    0.0000 C   0  0  0  0  0  0  0  0  0  0  0  0
    1.9871   -3.6939    0.0000 C   0  0  0  0  0  0  0  0  0  0  0  0
    2.4500   -3.0110    0.0000 N   0  0  0  0  0  0  0  0  0  0  0  0
    1.6244    0.3334    0.0000 C   0  0  0  0  0  0  0  0  0  0  0  0
    0.8968    0.7224    0.0000 C   0  0  0  0  0  0  0  0  0  0  0  0
    0.8700    1.5469    0.0000 C   0  0  0  0  0  0  0  0  0  0  0  0
    1.5706    1.9825    0.0000 C   0  0  0  0  0  0  0  0  0  0  0  0
    2.3475    1.5936    0.0000 C   0  0  0  0  0  0  0  0  0  0  0  0
    3.0063    2.0903    0.0000 C   0  0  0  0  0  0  0  0  0  0  0  0
    2.3250    0.7690    0.0000 C   0  0  0  0  0  0  0  0  0  0  0  0
  1  2  2  0
  2  3  1  0
  3  4  1  0
  4  5  1  0
  5  6  1  0
  6  7  1  0
  7  8  1  0
  3  8  1  0
  2  9  1  0
  9 10  1  0
 10 11  1  0
 11 12  1  0
 12 13  1  0
 13 14  2  0
 14 15  1  0
 15 16  2  0
 16 17  1  0
 17 18  2  0
 17 19  1  0
 19 20  1  0
 15 20  1  0
 20 21  2  0
 16 22  1  0
 22 23  2  0
 23 24  1  0
 24 25  2  0
 25 26  1  0
 26 27  2  0
 27 28  1  0
 28 29  2  0
 29 30  1  0
 22 30  1  0
 25 30  1  0
 14 31  1  0
 31 32  1  0
 32 33  2  0
 33 34  1  0
 34 35  2  0
 35 36  1  0
  9 36  1  0
 35 37  1  0
 12 37  1  0
 31 37  2  0
M  END
>  <pIC50>  (183) 
5.27

>  <chembl_id>  (183) 
CHEMBL362588

>  <canonical_smiles>  (183) 
O=C(N1CCCCC1)N2CCn3cc(C4=C(C(=O)NC4=O)c5cnc6ccccn56)c7cccc(C2)c37

$$$$
CHEMBL362814
     RDKit          2D

 34 39  0  0  0  0  0  0  0  0999 V2000
    4.5884    3.9223    0.0000 C   0  0  0  0  0  0  0  0  0  0  0  0
    4.0567    3.2915    0.0000 N   0  0  0  0  0  0  0  0  0  0  0  0
    3.2445    3.4366    0.0000 C   0  0  0  0  0  0  0  0  0  0  0  0
    4.3371    2.5156    0.0000 C   0  0  0  0  0  0  0  0  0  0  0  0
    5.1492    2.3705    0.0000 O   0  0  0  0  0  0  0  0  0  0  0  0
    3.8053    1.8848    0.0000 N   0  0  0  0  0  0  0  0  0  0  0  0
    4.1429    1.1321    0.0000 C   0  0  0  0  0  0  0  0  0  0  0  0
    3.7648    0.3988    0.0000 C   0  0  0  0  0  0  0  0  0  0  0  0
    2.9558    0.2372    0.0000 N   0  0  0  0  0  0  0  0  0  0  0  0
    2.6450   -0.5270    0.0000 C   0  0  0  0  0  0  0  0  0  0  0  0
    1.8221   -0.4676    0.0000 C   0  0  0  0  0  0  0  0  0  0  0  0
    1.2904   -1.0983    0.0000 C   0  0  0  0  0  0  0  0  0  0  0  0
    1.4881   -1.8993    0.0000 C   0  0  0  0  0  0  0  0  0  0  0  0
    0.7875   -2.3348    0.0000 C   0  0  0  0  0  0  0  0  0  0  0  0
    0.7280   -3.1577    0.0000 O   0  0  0  0  0  0  0  0  0  0  0  0
    0.1567   -1.8031    0.0000 N   0  0  0  0  0  0  0  0  0  0  0  0
    0.4675   -1.0389    0.0000 C   0  0  0  0  0  0  0  0  0  0  0  0
    0.0319   -0.3382    0.0000 O   0  0  0  0  0  0  0  0  0  0  0  0
    2.2523   -2.2101    0.0000 C   0  0  0  0  0  0  0  0  0  0  0  0
    2.9530   -1.7745    0.0000 C   0  0  0  0  0  0  0  0  0  0  0  0
    3.5837   -2.3063    0.0000 N   0  0  0  0  0  0  0  0  0  0  0  0
    3.2729   -3.0705    0.0000 C   0  0  0  0  0  0  0  0  0  0  0  0
    3.6328   -3.8128    0.0000 C   0  0  0  0  0  0  0  0  0  0  0  0
    3.1699   -4.4957    0.0000 C   0  0  0  0  0  0  0  0  0  0  0  0
    2.3471   -4.4363    0.0000 C   0  0  0  0  0  0  0  0  0  0  0  0
    1.9871   -3.6939    0.0000 C   0  0  0  0  0  0  0  0  0  0  0  0
    2.4500   -3.0110    0.0000 N   0  0  0  0  0  0  0  0  0  0  0  0
    1.6244    0.3334    0.0000 C   0  0  0  0  0  0  0  0  0  0  0  0
    0.8968    0.7224    0.0000 C   0  0  0  0  0  0  0  0  0  0  0  0
    0.8700    1.5469    0.0000 C   0  0  0  0  0  0  0  0  0  0  0  0
    1.5706    1.9825    0.0000 C   0  0  0  0  0  0  0  0  0  0  0  0
    2.3475    1.5936    0.0000 C   0  0  0  0  0  0  0  0  0  0  0  0
    3.0063    2.0903    0.0000 C   0  0  0  0  0  0  0  0  0  0  0  0
    2.3250    0.7690    0.0000 C   0  0  0  0  0  0  0  0  0  0  0  0
  1  2  1  0
  2  3  1  0
  2  4  1  0
  4  5  2  0
  4  6  1  0
  6  7  1  0
  7  8  1  0
  8  9  1  0
  9 10  1  0
 10 11  2  0
 11 12  1  0
 12 13  2  0
 13 14  1  0
 14 15  2  0
 14 16  1  0
 16 17  1  0
 12 17  1  0
 17 18  2  0
 13 19  1  0
 19 20  2  0
 20 21  1  0
 21 22  2  0
 22 23  1  0
 23 24  2  0
 24 25  1  0
 25 26  2  0
 26 27  1  0
 19 27  1  0
 22 27  1  0
 11 28  1  0
 28 29  2  0
 29 30  1  0
 30 31  2  0
 31 32  1  0
 32 33  1  0
  6 33  1  0
 32 34  2  0
  9 34  1  0
 28 34  1  0
M  END
>  <pIC50>  (184) 
5.68

>  <chembl_id>  (184) 
CHEMBL362814

>  <canonical_smiles>  (184) 
CN(C)C(=O)N1CCn2cc(C3=C(C(=O)NC3=O)c4cnc5ccccn45)c6cccc(C1)c26

$$$$
CHEMBL363058
     RDKit          2D

 35 40  0  0  0  0  0  0  0  0999 V2000
    4.3081    4.6982    0.0000 C   0  0  0  0  0  0  0  0  0  0  0  0
    4.5884    3.9223    0.0000 C   0  0  0  0  0  0  0  0  0  0  0  0
    5.4006    3.7771    0.0000 C   0  0  0  0  0  0  0  0  0  0  0  0
    4.0567    3.2915    0.0000 O   0  0  0  0  0  0  0  0  0  0  0  0
    4.3371    2.5156    0.0000 C   0  0  0  0  0  0  0  0  0  0  0  0
    5.1492    2.3705    0.0000 O   0  0  0  0  0  0  0  0  0  0  0  0
    3.8053    1.8848    0.0000 N   0  0  0  0  0  0  0  0  0  0  0  0
    4.1429    1.1321    0.0000 C   0  0  0  0  0  0  0  0  0  0  0  0
    3.7648    0.3988    0.0000 C   0  0  0  0  0  0  0  0  0  0  0  0
    2.9558    0.2372    0.0000 N   0  0  0  0  0  0  0  0  0  0  0  0
    2.6450   -0.5270    0.0000 C   0  0  0  0  0  0  0  0  0  0  0  0
    1.8221   -0.4676    0.0000 C   0  0  0  0  0  0  0  0  0  0  0  0
    1.2904   -1.0983    0.0000 C   0  0  0  0  0  0  0  0  0  0  0  0
    1.4881   -1.8993    0.0000 C   0  0  0  0  0  0  0  0  0  0  0  0
    0.7875   -2.3348    0.0000 C   0  0  0  0  0  0  0  0  0  0  0  0
    0.7280   -3.1577    0.0000 O   0  0  0  0  0  0  0  0  0  0  0  0
    0.1567   -1.8031    0.0000 N   0  0  0  0  0  0  0  0  0  0  0  0
    0.4675   -1.0389    0.0000 C   0  0  0  0  0  0  0  0  0  0  0  0
    0.0319   -0.3382    0.0000 O   0  0  0  0  0  0  0  0  0  0  0  0
    2.2523   -2.2101    0.0000 C   0  0  0  0  0  0  0  0  0  0  0  0
    2.9530   -1.7745    0.0000 C   0  0  0  0  0  0  0  0  0  0  0  0
    3.5837   -2.3063    0.0000 N   0  0  0  0  0  0  0  0  0  0  0  0
    3.2729   -3.0705    0.0000 C   0  0  0  0  0  0  0  0  0  0  0  0
    3.6328   -3.8128    0.0000 C   0  0  0  0  0  0  0  0  0  0  0  0
    3.1699   -4.4957    0.0000 C   0  0  0  0  0  0  0  0  0  0  0  0
    2.3471   -4.4363    0.0000 C   0  0  0  0  0  0  0  0  0  0  0  0
    1.9871   -3.6939    0.0000 C   0  0  0  0  0  0  0  0  0  0  0  0
    2.4500   -3.0110    0.0000 N   0  0  0  0  0  0  0  0  0  0  0  0
    1.6244    0.3334    0.0000 C   0  0  0  0  0  0  0  0  0  0  0  0
    0.8968    0.7224    0.0000 C   0  0  0  0  0  0  0  0  0  0  0  0
    0.8700    1.5469    0.0000 C   0  0  0  0  0  0  0  0  0  0  0  0
    1.5706    1.9825    0.0000 C   0  0  0  0  0  0  0  0  0  0  0  0
    2.3475    1.5936    0.0000 C   0  0  0  0  0  0  0  0  0  0  0  0
    3.0063    2.0903    0.0000 C   0  0  0  0  0  0  0  0  0  0  0  0
    2.3250    0.7690    0.0000 C   0  0  0  0  0  0  0  0  0  0  0  0
  1  2  1  0
  2  3  1  0
  2  4  1  0
  4  5  1  0
  5  6  2  0
  5  7  1  0
  7  8  1  0
  8  9  1  0
  9 10  1  0
 10 11  1  0
 11 12  2  0
 12 13  1  0
 13 14  2  0
 14 15  1  0
 15 16  2  0
 15 17  1  0
 17 18  1  0
 13 18  1  0
 18 19  2  0
 14 20  1  0
 20 21  2  0
 21 22  1  0
 22 23  2  0
 23 24  1  0
 24 25  2  0
 25 26  1  0
 26 27  2  0
 27 28  1  0
 20 28  1  0
 23 28  1  0
 12 29  1  0
 29 30  2  0
 30 31  1  0
 31 32  2  0
 32 33  1  0
 33 34  1  0
  7 34  1  0
 33 35  2  0
 10 35  1  0
 29 35  1  0
M  END
>  <pIC50>  (185) 
5.47

>  <chembl_id>  (185) 
CHEMBL363058

>  <canonical_smiles>  (185) 
CC(C)OC(=O)N1CCn2cc(C3=C(C(=O)NC3=O)c4cnc5ccccn45)c6cccc(C1)c26

$$$$
CHEMBL3642647
     RDKit          2D

 25 28  0  0  0  0  0  0  0  0999 V2000
    3.3523    3.5854    0.0000 F   0  0  0  0  0  0  0  0  0  0  0  0
    4.0668    3.1729    0.0000 C   0  0  0  0  0  0  0  0  0  0  0  0
    4.7812    3.5854    0.0000 C   0  0  0  0  0  0  0  0  0  0  0  0
    5.4957    3.1729    0.0000 C   0  0  0  0  0  0  0  0  0  0  0  0
    5.4957    2.3479    0.0000 C   0  0  0  0  0  0  0  0  0  0  0  0
    4.7812    1.9354    0.0000 C   0  0  0  0  0  0  0  0  0  0  0  0
    4.0668    2.3479    0.0000 C   0  0  0  0  0  0  0  0  0  0  0  0
    3.3523    1.9354    0.0000 C   0  0  0  0  0  0  0  0  0  0  0  0
    3.3523    1.1104    0.0000 C   0  0  0  0  0  0  0  0  0  0  0  0
    2.6378    0.6979    0.0000 C   0  0  0  0  0  0  0  0  0  0  0  0
    2.6378   -0.1271    0.0000 N   0  0  0  0  0  0  0  0  0  0  0  0
    3.3523   -0.5396    0.0000 C   0  0  0  0  0  0  0  0  0  0  0  0
    3.3523   -1.3646    0.0000 C   0  0  0  0  0  0  0  0  0  0  0  0
    4.0668   -1.7771    0.0000 C   0  0  0  0  0  0  0  0  0  0  0  0
    4.0668   -2.6021    0.0000 C   0  0  0  0  0  0  0  0  0  0  0  0
    3.3523   -3.0146    0.0000 C   0  0  0  0  0  0  0  0  0  0  0  0
    2.6378   -2.6021    0.0000 N   0  0  0  0  0  0  0  0  0  0  0  0
    2.6378   -1.7771    0.0000 C   0  0  0  0  0  0  0  0  0  0  0  0
    1.9233    1.1104    0.0000 N   0  0  0  0  0  0  0  0  0  0  0  0
    1.1387    0.8555    0.0000 N   0  0  0  0  0  0  0  0  0  0  0  0
    0.6538    1.5229    0.0000 C   0  0  0  0  0  0  0  0  0  0  0  0
    1.1387    2.1904    0.0000 C   0  0  0  0  0  0  0  0  0  0  0  0
    0.8838    2.9750    0.0000 Br  0  0  0  0  0  0  0  0  0  0  0  0
    1.9233    1.9354    0.0000 C   0  0  0  0  0  0  0  0  0  0  0  0
    2.6378    2.3479    0.0000 N   0  0  0  0  0  0  0  0  0  0  0  0
  1  2  1  0
  2  3  2  0
  3  4  1  0
  4  5  2  0
  5  6  1  0
  6  7  2  0
  2  7  1  0
  7  8  1  0
  8  9  1  0
  9 10  2  0
 10 11  1  0
 11 12  1  0
 12 13  1  0
 13 14  2  0
 14 15  1  0
 15 16  2  0
 16 17  1  0
 17 18  2  0
 13 18  1  0
 10 19  1  0
 19 20  1  0
 20 21  2  0
 21 22  1  0
 22 23  1  0
 22 24  2  0
 19 24  1  0
 24 25  1  0
  8 25  2  0
M  END
>  <pIC50>  (186) 
7.96

>  <chembl_id>  (186) 
CHEMBL3642647

>  <canonical_smiles>  (186) 
Fc1ccccc1c2cc(NCc3cccnc3)n4ncc(Br)c4n2

$$$$
CHEMBL3642648
     RDKit          2D

 25 28  0  0  0  0  0  0  0  0999 V2000
    3.3523    3.5854    0.0000 F   0  0  0  0  0  0  0  0  0  0  0  0
    4.0668    3.1729    0.0000 C   0  0  0  0  0  0  0  0  0  0  0  0
    4.7812    3.5854    0.0000 C   0  0  0  0  0  0  0  0  0  0  0  0
    5.4957    3.1729    0.0000 C   0  0  0  0  0  0  0  0  0  0  0  0
    5.4957    2.3479    0.0000 C   0  0  0  0  0  0  0  0  0  0  0  0
    4.7812    1.9354    0.0000 C   0  0  0  0  0  0  0  0  0  0  0  0
    4.0668    2.3479    0.0000 C   0  0  0  0  0  0  0  0  0  0  0  0
    3.3523    1.9354    0.0000 C   0  0  0  0  0  0  0  0  0  0  0  0
    3.3523    1.1104    0.0000 C   0  0  0  0  0  0  0  0  0  0  0  0
    2.6378    0.6979    0.0000 C   0  0  0  0  0  0  0  0  0  0  0  0
    2.6378   -0.1271    0.0000 N   0  0  0  0  0  0  0  0  0  0  0  0
    3.3523   -0.5396    0.0000 C   0  0  0  0  0  0  0  0  0  0  0  0
    3.3523   -1.3646    0.0000 C   0  0  0  0  0  0  0  0  0  0  0  0
    4.0668   -1.7771    0.0000 C   0  0  0  0  0  0  0  0  0  0  0  0
    4.0668   -2.6021    0.0000 C   0  0  0  0  0  0  0  0  0  0  0  0
    3.3523   -3.0146    0.0000 C   0  0  0  0  0  0  0  0  0  0  0  0
    2.6378   -2.6021    0.0000 N   0  0  0  0  0  0  0  0  0  0  0  0
    2.6378   -1.7771    0.0000 C   0  0  0  0  0  0  0  0  0  0  0  0
    1.9233    1.1104    0.0000 N   0  0  0  0  0  0  0  0  0  0  0  0
    1.1387    0.8555    0.0000 N   0  0  0  0  0  0  0  0  0  0  0  0
    0.6538    1.5229    0.0000 C   0  0  0  0  0  0  0  0  0  0  0  0
    1.1387    2.1904    0.0000 C   0  0  0  0  0  0  0  0  0  0  0  0
    0.8838    2.9750    0.0000 Cl  0  0  0  0  0  0  0  0  0  0  0  0
    1.9233    1.9354    0.0000 C   0  0  0  0  0  0  0  0  0  0  0  0
    2.6378    2.3479    0.0000 N   0  0  0  0  0  0  0  0  0  0  0  0
  1  2  1  0
  2  3  2  0
  3  4  1  0
  4  5  2  0
  5  6  1  0
  6  7  2  0
  2  7  1  0
  7  8  1  0
  8  9  1  0
  9 10  2  0
 10 11  1  0
 11 12  1  0
 12 13  1  0
 13 14  2  0
 14 15  1  0
 15 16  2  0
 16 17  1  0
 17 18  2  0
 13 18  1  0
 10 19  1  0
 19 20  1  0
 20 21  2  0
 21 22  1  0
 22 23  1  0
 22 24  2  0
 19 24  1  0
 24 25  1  0
  8 25  2  0
M  END
>  <pIC50>  (187) 
7.68

>  <chembl_id>  (187) 
CHEMBL3642648

>  <canonical_smiles>  (187) 
Fc1ccccc1c2cc(NCc3cccnc3)n4ncc(Cl)c4n2

$$$$
CHEMBL3642651
     RDKit          2D

 21 23  0  0  0  0  0  0  0  0999 V2000
    4.0668    3.1729    0.0000 C   0  0  0  0  0  0  0  0  0  0  0  0
    4.0668    2.3479    0.0000 C   0  0  0  0  0  0  0  0  0  0  0  0
    4.7812    1.9354    0.0000 C   0  0  0  0  0  0  0  0  0  0  0  0
    3.3523    1.9354    0.0000 C   0  0  0  0  0  0  0  0  0  0  0  0
    3.3523    1.1104    0.0000 C   0  0  0  0  0  0  0  0  0  0  0  0
    2.6378    0.6979    0.0000 C   0  0  0  0  0  0  0  0  0  0  0  0
    2.6378   -0.1271    0.0000 N   0  0  0  0  0  0  0  0  0  0  0  0
    3.3523   -0.5396    0.0000 C   0  0  0  0  0  0  0  0  0  0  0  0
    3.3523   -1.3646    0.0000 C   0  0  0  0  0  0  0  0  0  0  0  0
    4.0668   -1.7771    0.0000 C   0  0  0  0  0  0  0  0  0  0  0  0
    4.0668   -2.6021    0.0000 C   0  0  0  0  0  0  0  0  0  0  0  0
    3.3523   -3.0146    0.0000 N   0  0  0  0  0  0  0  0  0  0  0  0
    2.6378   -2.6021    0.0000 C   0  0  0  0  0  0  0  0  0  0  0  0
    2.6378   -1.7771    0.0000 C   0  0  0  0  0  0  0  0  0  0  0  0
    1.9233    1.1104    0.0000 N   0  0  0  0  0  0  0  0  0  0  0  0
    1.1387    0.8555    0.0000 N   0  0  0  0  0  0  0  0  0  0  0  0
    0.6538    1.5229    0.0000 C   0  0  0  0  0  0  0  0  0  0  0  0
    1.1387    2.1904    0.0000 C   0  0  0  0  0  0  0  0  0  0  0  0
    0.8838    2.9750    0.0000 Br  0  0  0  0  0  0  0  0  0  0  0  0
    1.9233    1.9354    0.0000 C   0  0  0  0  0  0  0  0  0  0  0  0
    2.6378    2.3479    0.0000 N   0  0  0  0  0  0  0  0  0  0  0  0
  1  2  1  0
  2  3  1  0
  2  4  1  0
  4  5  1  0
  5  6  2  0
  6  7  1  0
  7  8  1  0
  8  9  1  0
  9 10  2  0
 10 11  1  0
 11 12  2  0
 12 13  1  0
 13 14  2  0
  9 14  1  0
  6 15  1  0
 15 16  1  0
 16 17  2  0
 17 18  1  0
 18 19  1  0
 18 20  2  0
 15 20  1  0
 20 21  1  0
  4 21  2  0
M  END
>  <pIC50>  (188) 
7.38

>  <chembl_id>  (188) 
CHEMBL3642651

>  <canonical_smiles>  (188) 
CC(C)c1cc(NCc2ccncc2)n3ncc(Br)c3n1

$$$$
CHEMBL3642652
     RDKit          2D

 22 24  0  0  0  0  0  0  0  0999 V2000
    4.7812    2.7604    0.0000 C   0  0  0  0  0  0  0  0  0  0  0  0
    4.0668    2.3479    0.0000 C   0  0  0  0  0  0  0  0  0  0  0  0
    3.6543    3.0624    0.0000 C   0  0  0  0  0  0  0  0  0  0  0  0
    4.4793    1.6335    0.0000 C   0  0  0  0  0  0  0  0  0  0  0  0
    3.3523    1.9354    0.0000 C   0  0  0  0  0  0  0  0  0  0  0  0
    3.3523    1.1104    0.0000 C   0  0  0  0  0  0  0  0  0  0  0  0
    2.6378    0.6979    0.0000 C   0  0  0  0  0  0  0  0  0  0  0  0
    2.6378   -0.1271    0.0000 N   0  0  0  0  0  0  0  0  0  0  0  0
    3.3523   -0.5396    0.0000 C   0  0  0  0  0  0  0  0  0  0  0  0
    3.3523   -1.3646    0.0000 C   0  0  0  0  0  0  0  0  0  0  0  0
    4.0668   -1.7771    0.0000 C   0  0  0  0  0  0  0  0  0  0  0  0
    4.0668   -2.6021    0.0000 C   0  0  0  0  0  0  0  0  0  0  0  0
    3.3523   -3.0146    0.0000 N   0  0  0  0  0  0  0  0  0  0  0  0
    2.6378   -2.6021    0.0000 C   0  0  0  0  0  0  0  0  0  0  0  0
    2.6378   -1.7771    0.0000 C   0  0  0  0  0  0  0  0  0  0  0  0
    1.9233    1.1104    0.0000 N   0  0  0  0  0  0  0  0  0  0  0  0
    1.1387    0.8555    0.0000 N   0  0  0  0  0  0  0  0  0  0  0  0
    0.6538    1.5229    0.0000 C   0  0  0  0  0  0  0  0  0  0  0  0
    1.1387    2.1904    0.0000 C   0  0  0  0  0  0  0  0  0  0  0  0
    0.8838    2.9750    0.0000 Br  0  0  0  0  0  0  0  0  0  0  0  0
    1.9233    1.9354    0.0000 C   0  0  0  0  0  0  0  0  0  0  0  0
    2.6378    2.3479    0.0000 N   0  0  0  0  0  0  0  0  0  0  0  0
  1  2  1  0
  2  3  1  0
  2  4  1  0
  2  5  1  0
  5  6  1  0
  6  7  2  0
  7  8  1  0
  8  9  1  0
  9 10  1  0
 10 11  2  0
 11 12  1  0
 12 13  2  0
 13 14  1  0
 14 15  2  0
 10 15  1  0
  7 16  1  0
 16 17  1  0
 17 18  2  0
 18 19  1  0
 19 20  1  0
 19 21  2  0
 16 21  1  0
 21 22  1  0
  5 22  2  0
M  END
>  <pIC50>  (189) 
6.77

>  <chembl_id>  (189) 
CHEMBL3642652

>  <canonical_smiles>  (189) 
CC(C)(C)c1cc(NCc2ccncc2)n3ncc(Br)c3n1

$$$$
CHEMBL3642653
     RDKit          2D

 25 28  0  0  0  0  0  0  0  0999 V2000
    0.6288   -2.9346    0.0000 N   0  0  0  0  0  0  0  0  0  0  0  0
    0.8838   -2.1500    0.0000 C   0  0  0  0  0  0  0  0  0  0  0  0
    1.1387   -1.3654    0.0000 C   0  0  0  0  0  0  0  0  0  0  0  0
    0.6538   -0.6979    0.0000 C   0  0  0  0  0  0  0  0  0  0  0  0
    1.1387   -0.0305    0.0000 N   0  0  0  0  0  0  0  0  0  0  0  0
    1.9233   -0.2854    0.0000 N   0  0  0  0  0  0  0  0  0  0  0  0
    2.6378    0.1271    0.0000 C   0  0  0  0  0  0  0  0  0  0  0  0
    2.6378    0.9521    0.0000 N   0  0  0  0  0  0  0  0  0  0  0  0
    1.9233    1.3646    0.0000 C   0  0  0  0  0  0  0  0  0  0  0  0
    1.9233    2.1896    0.0000 C   0  0  0  0  0  0  0  0  0  0  0  0
    1.2089    2.6021    0.0000 C   0  0  0  0  0  0  0  0  0  0  0  0
    1.2089    3.4271    0.0000 C   0  0  0  0  0  0  0  0  0  0  0  0
    1.9233    3.8396    0.0000 N   0  0  0  0  0  0  0  0  0  0  0  0
    2.6378    3.4271    0.0000 C   0  0  0  0  0  0  0  0  0  0  0  0
    2.6378    2.6021    0.0000 C   0  0  0  0  0  0  0  0  0  0  0  0
    3.3523   -0.2854    0.0000 C   0  0  0  0  0  0  0  0  0  0  0  0
    3.3523   -1.1104    0.0000 C   0  0  0  0  0  0  0  0  0  0  0  0
    2.6378   -1.5229    0.0000 N   0  0  0  0  0  0  0  0  0  0  0  0
    1.9233   -1.1104    0.0000 C   0  0  0  0  0  0  0  0  0  0  0  0
    4.0668   -1.5229    0.0000 C   0  0  0  0  0  0  0  0  0  0  0  0
    4.7812   -1.1104    0.0000 C   0  0  0  0  0  0  0  0  0  0  0  0
    5.4957   -1.5229    0.0000 C   0  0  0  0  0  0  0  0  0  0  0  0
    5.4957   -2.3479    0.0000 C   0  0  0  0  0  0  0  0  0  0  0  0
    4.7812   -2.7604    0.0000 C   0  0  0  0  0  0  0  0  0  0  0  0
    4.0668   -2.3479    0.0000 C   0  0  0  0  0  0  0  0  0  0  0  0
  1  2  3  0
  2  3  1  0
  3  4  1  0
  4  5  2  0
  5  6  1  0
  6  7  1  0
  7  8  1  0
  8  9  1  0
  9 10  1  0
 10 11  2  0
 11 12  1  0
 12 13  2  0
 13 14  1  0
 14 15  2  0
 10 15  1  0
  7 16  2  0
 16 17  1  0
 17 18  2  0
 18 19  1  0
  3 19  2  0
  6 19  1  0
 17 20  1  0
 20 21  2  0
 21 22  1  0
 22 23  2  0
 23 24  1  0
 24 25  2  0
 20 25  1  0
M  END
>  <pIC50>  (190) 
6.21

>  <chembl_id>  (190) 
CHEMBL3642653

>  <canonical_smiles>  (190) 
N#Cc1cnn2c(NCc3ccncc3)cc(nc12)c4ccccc4

$$$$
CHEMBL3642654
     RDKit          2D

 24 27  0  0  0  0  0  0  0  0999 V2000
    6.2102    3.5854    0.0000 C   0  0  0  0  0  0  0  0  0  0  0  0
    5.4957    3.1729    0.0000 N   0  0  0  0  0  0  0  0  0  0  0  0
    5.4957    2.3479    0.0000 C   0  0  0  0  0  0  0  0  0  0  0  0
    4.7812    1.9354    0.0000 C   0  0  0  0  0  0  0  0  0  0  0  0
    4.0668    2.3479    0.0000 N   0  0  0  0  0  0  0  0  0  0  0  0
    4.0668    3.1729    0.0000 C   0  0  0  0  0  0  0  0  0  0  0  0
    4.7812    3.5854    0.0000 C   0  0  0  0  0  0  0  0  0  0  0  0
    3.3523    1.9354    0.0000 C   0  0  0  0  0  0  0  0  0  0  0  0
    3.3523    1.1104    0.0000 C   0  0  0  0  0  0  0  0  0  0  0  0
    2.6378    0.6979    0.0000 C   0  0  0  0  0  0  0  0  0  0  0  0
    2.6378   -0.1271    0.0000 N   0  0  0  0  0  0  0  0  0  0  0  0
    3.3523   -0.5396    0.0000 C   0  0  0  0  0  0  0  0  0  0  0  0
    3.3523   -1.3646    0.0000 C   0  0  0  0  0  0  0  0  0  0  0  0
    4.0668   -1.7771    0.0000 C   0  0  0  0  0  0  0  0  0  0  0  0
    4.0668   -2.6021    0.0000 C   0  0  0  0  0  0  0  0  0  0  0  0
    3.3523   -3.0146    0.0000 C   0  0  0  0  0  0  0  0  0  0  0  0
    2.6378   -2.6021    0.0000 N   0  0  0  0  0  0  0  0  0  0  0  0
    2.6378   -1.7771    0.0000 C   0  0  0  0  0  0  0  0  0  0  0  0
    1.9233    1.1104    0.0000 N   0  0  0  0  0  0  0  0  0  0  0  0
    1.1387    0.8555    0.0000 N   0  0  0  0  0  0  0  0  0  0  0  0
    0.6538    1.5229    0.0000 C   0  0  0  0  0  0  0  0  0  0  0  0
    1.1387    2.1904    0.0000 C   0  0  0  0  0  0  0  0  0  0  0  0
    1.9233    1.9354    0.0000 C   0  0  0  0  0  0  0  0  0  0  0  0
    2.6378    2.3479    0.0000 N   0  0  0  0  0  0  0  0  0  0  0  0
  1  2  1  0
  2  3  1  0
  3  4  1  0
  4  5  1  0
  5  6  1  0
  6  7  1  0
  2  7  1  0
  5  8  1  0
  8  9  1  0
  9 10  2  0
 10 11  1  0
 11 12  1  0
 12 13  1  0
 13 14  2  0
 14 15  1  0
 15 16  2  0
 16 17  1  0
 17 18  2  0
 13 18  1  0
 10 19  1  0
 19 20  1  0
 20 21  2  0
 21 22  1  0
 22 23  2  0
 19 23  1  0
 23 24  1  0
  8 24  2  0
M  END
>  <pIC50>  (191) 
5.25

>  <chembl_id>  (191) 
CHEMBL3642654

>  <canonical_smiles>  (191) 
CN1CCN(CC1)c2cc(NCc3cccnc3)n4nccc4n2

$$$$
CHEMBL3642655
     RDKit          2D

 25 28  0  0  0  0  0  0  0  0999 V2000
    6.2102    3.5854    0.0000 C   0  0  0  0  0  0  0  0  0  0  0  0
    5.4957    3.1729    0.0000 N   0  0  0  0  0  0  0  0  0  0  0  0
    5.4957    2.3479    0.0000 C   0  0  0  0  0  0  0  0  0  0  0  0
    4.7812    1.9354    0.0000 C   0  0  0  0  0  0  0  0  0  0  0  0
    4.0668    2.3479    0.0000 N   0  0  0  0  0  0  0  0  0  0  0  0
    4.0668    3.1729    0.0000 C   0  0  0  0  0  0  0  0  0  0  0  0
    4.7812    3.5854    0.0000 C   0  0  0  0  0  0  0  0  0  0  0  0
    3.3523    1.9354    0.0000 C   0  0  0  0  0  0  0  0  0  0  0  0
    3.3523    1.1104    0.0000 C   0  0  0  0  0  0  0  0  0  0  0  0
    2.6378    0.6979    0.0000 C   0  0  0  0  0  0  0  0  0  0  0  0
    2.6378   -0.1271    0.0000 N   0  0  0  0  0  0  0  0  0  0  0  0
    3.3523   -0.5396    0.0000 C   0  0  0  0  0  0  0  0  0  0  0  0
    3.3523   -1.3646    0.0000 C   0  0  0  0  0  0  0  0  0  0  0  0
    4.0668   -1.7771    0.0000 C   0  0  0  0  0  0  0  0  0  0  0  0
    4.0668   -2.6021    0.0000 C   0  0  0  0  0  0  0  0  0  0  0  0
    3.3523   -3.0146    0.0000 C   0  0  0  0  0  0  0  0  0  0  0  0
    2.6378   -2.6021    0.0000 N   0  0  0  0  0  0  0  0  0  0  0  0
    2.6378   -1.7771    0.0000 C   0  0  0  0  0  0  0  0  0  0  0  0
    1.9233    1.1104    0.0000 N   0  0  0  0  0  0  0  0  0  0  0  0
    1.1387    0.8555    0.0000 N   0  0  0  0  0  0  0  0  0  0  0  0
    0.6538    1.5229    0.0000 C   0  0  0  0  0  0  0  0  0  0  0  0
    1.1387    2.1904    0.0000 C   0  0  0  0  0  0  0  0  0  0  0  0
    0.8838    2.9750    0.0000 Br  0  0  0  0  0  0  0  0  0  0  0  0
    1.9233    1.9354    0.0000 C   0  0  0  0  0  0  0  0  0  0  0  0
    2.6378    2.3479    0.0000 N   0  0  0  0  0  0  0  0  0  0  0  0
  1  2  1  0
  2  3  1  0
  3  4  1  0
  4  5  1  0
  5  6  1  0
  6  7  1  0
  2  7  1  0
  5  8  1  0
  8  9  1  0
  9 10  2  0
 10 11  1  0
 11 12  1  0
 12 13  1  0
 13 14  2  0
 14 15  1  0
 15 16  2  0
 16 17  1  0
 17 18  2  0
 13 18  1  0
 10 19  1  0
 19 20  1  0
 20 21  2  0
 21 22  1  0
 22 23  1  0
 22 24  2  0
 19 24  1  0
 24 25  1  0
  8 25  2  0
M  END
>  <pIC50>  (192) 
6.85

>  <chembl_id>  (192) 
CHEMBL3642655

>  <canonical_smiles>  (192) 
CN1CCN(CC1)c2cc(NCc3cccnc3)n4ncc(Br)c4n2

$$$$
CHEMBL3644019
     RDKit          2D

 30 32  0  0  1  0  0  0  0  0999 V2000
    0.7145   10.4401    0.0000 C   0  0  0  0  0  0  0  0  0  0  0  0
    0.0000   10.8526    0.0000 C   0  0  0  0  0  0  0  0  0  0  0  0
   -0.7145   10.4401    0.0000 O   0  0  0  0  0  0  0  0  0  0  0  0
   -0.7145    9.6151    0.0000 C   0  0  0  0  0  0  0  0  0  0  0  0
    0.0000    9.2026    0.0000 N   0  0  0  0  0  0  0  0  0  0  0  0
    0.0000    8.3776    0.0000 C   0  0  0  0  0  0  0  0  0  0  0  0
    0.7145    7.9651    0.0000 N   0  0  0  0  0  0  0  0  0  0  0  0
    0.7145    7.1401    0.0000 C   0  0  0  0  0  0  0  0  0  0  0  0
    1.4289    6.7276    0.0000 C   0  0  0  0  0  0  0  0  0  0  0  0
    1.4289    5.9026    0.0000 C   0  0  0  0  0  0  0  0  0  0  0  0
    0.7145    5.4901    0.0000 C   0  0  0  0  0  0  0  0  0  0  0  0
    0.0000    5.9026    0.0000 C   0  0  0  0  0  0  0  0  0  0  0  0
    0.0000    6.7276    0.0000 C   0  0  0  0  0  0  0  0  0  0  0  0
    0.7145    4.6651    0.0000 S   0  0  0  0  0  0  0  0  0  0  0  0
    1.5395    4.6651    0.0000 O   0  0  0  0  0  0  0  0  0  0  0  0
   -0.1105    4.6651    0.0000 O   0  0  0  0  0  0  0  0  0  0  0  0
    0.7145    3.8401    0.0000 C   0  0  0  0  0  0  0  0  0  0  0  0
    1.1270    3.1257    0.0000 C   0  0  0  0  0  0  0  0  0  0  0  0
    0.3020    3.1257    0.0000 C   0  0  0  0  0  0  0  0  0  0  0  0
   -0.7145    7.9651    0.0000 N   0  0  0  0  0  0  0  0  0  0  0  0
   -1.4289    8.3776    0.0000 C   0  0  0  0  0  0  0  0  0  0  0  0
   -1.4289    9.2026    0.0000 C   0  0  0  0  0  0  0  0  0  0  0  0
   -2.1434    9.6151    0.0000 C   0  0  0  0  0  0  0  0  0  0  0  0
   -2.8579   10.0276    0.0000 F   0  0  0  0  0  0  0  0  0  0  0  0
   -1.7309   10.3296    0.0000 F   0  0  0  0  0  0  0  0  0  0  0  0
   -2.5559    8.9007    0.0000 F   0  0  0  0  0  0  0  0  0  0  0  0
    0.0000   11.6776    0.0000 C   0  0  0  0  0  0  0  0  0  0  0  0
    0.0000   12.5026    0.0000 C   0  0  0  0  0  0  0  0  0  0  0  0
    0.8250   11.6776    0.0000 C   0  0  0  0  0  0  0  0  0  0  0  0
   -0.8250   11.6776    0.0000 O   0  0  0  0  0  0  0  0  0  0  0  0
  2  1  1  1
  2  3  1  0
  3  4  1  0
  4  5  2  0
  5  6  1  0
  6  7  1  0
  7  8  1  0
  8  9  2  0
  9 10  1  0
 10 11  2  0
 11 12  1  0
 12 13  2  0
  8 13  1  0
 11 14  1  0
 14 15  2  0
 14 16  2  0
 14 17  1  0
 17 18  1  0
 18 19  1  0
 17 19  1  0
  6 20  2  0
 20 21  1  0
 21 22  2  0
  4 22  1  0
 22 23  1  0
 23 24  1  0
 23 25  1  0
 23 26  1  0
  2 27  1  0
 27 28  1  0
 27 29  1  0
 27 30  1  0
M  END
>  <pIC50>  (193) 
7.68

>  <chembl_id>  (193) 
CHEMBL3644019

>  <canonical_smiles>  (193) 
C[C@@H](Oc1nc(Nc2ccc(cc2)S(=O)(=O)C3CC3)ncc1C(F)(F)F)C(C)(C)O

$$$$
CHEMBL3644020
     RDKit          2D

 32 34  0  0  1  0  0  0  0  0999 V2000
    2.1434   -2.0625    0.0000 C   0  0  0  0  0  0  0  0  0  0  0  0
    2.8579   -2.4750    0.0000 C   0  0  0  0  0  0  0  0  0  0  0  0
    3.5724   -2.0625    0.0000 O   0  0  0  0  0  0  0  0  0  0  0  0
    2.8579   -3.3000    0.0000 C   0  0  0  0  0  0  0  0  0  0  0  0
    3.5724   -3.7125    0.0000 C   0  0  0  0  0  0  0  0  0  0  0  0
    2.1434   -3.7125    0.0000 O   0  0  0  0  0  0  0  0  0  0  0  0
    2.1434   -4.5375    0.0000 C   0  0  0  0  0  0  0  0  0  0  0  0
    2.8579   -4.9500    0.0000 N   0  0  0  0  0  0  0  0  0  0  0  0
    2.8579   -5.7750    0.0000 C   0  0  0  0  0  0  0  0  0  0  0  0
    3.5724   -6.1875    0.0000 N   0  0  0  0  0  0  0  0  0  0  0  0
    3.5724   -7.0125    0.0000 C   0  0  0  0  0  0  0  0  0  0  0  0
    4.2868   -7.4250    0.0000 C   0  0  0  0  0  0  0  0  0  0  0  0
    4.2868   -8.2500    0.0000 C   0  0  0  0  0  0  0  0  0  0  0  0
    3.5724   -8.6625    0.0000 C   0  0  0  0  0  0  0  0  0  0  0  0
    2.8579   -8.2500    0.0000 C   0  0  0  0  0  0  0  0  0  0  0  0
    2.8579   -7.4250    0.0000 C   0  0  0  0  0  0  0  0  0  0  0  0
    3.5724   -9.4875    0.0000 S   0  0  0  0  0  0  0  0  0  0  0  0
    2.7474   -9.4875    0.0000 O   0  0  0  0  0  0  0  0  0  0  0  0
    4.3974   -9.4875    0.0000 O   0  0  0  0  0  0  0  0  0  0  0  0
    3.5724  -10.3125    0.0000 C   0  0  0  0  0  0  0  0  0  0  0  0
    4.2868  -10.7250    0.0000 C   0  0  0  0  0  0  0  0  0  0  0  0
    4.2868  -11.5500    0.0000 C   0  0  0  0  0  0  0  0  0  0  0  0
    3.5724  -11.9625    0.0000 C   0  0  0  0  0  0  0  0  0  0  0  0
    2.8579  -11.5500    0.0000 C   0  0  0  0  0  0  0  0  0  0  0  0
    2.8579  -10.7250    0.0000 C   0  0  0  0  0  0  0  0  0  0  0  0
    2.1434   -6.1875    0.0000 N   0  0  0  0  0  0  0  0  0  0  0  0
    1.4289   -5.7750    0.0000 C   0  0  0  0  0  0  0  0  0  0  0  0
    1.4289   -4.9500    0.0000 C   0  0  0  0  0  0  0  0  0  0  0  0
    0.7145   -4.5375    0.0000 C   0  0  0  0  0  0  0  0  0  0  0  0
    0.0000   -4.1250    0.0000 F   0  0  0  0  0  0  0  0  0  0  0  0
    1.1270   -3.8230    0.0000 F   0  0  0  0  0  0  0  0  0  0  0  0
    0.3020   -5.2520    0.0000 F   0  0  0  0  0  0  0  0  0  0  0  0
  2  1  1  1
  2  3  1  0
  2  4  1  0
  4  5  1  1
  4  6  1  0
  6  7  1  0
  7  8  2  0
  8  9  1  0
  9 10  1  0
 10 11  1  0
 11 12  2  0
 12 13  1  0
 13 14  2  0
 14 15  1  0
 15 16  2  0
 11 16  1  0
 14 17  1  0
 17 18  2  0
 17 19  2  0
 17 20  1  0
 20 21  2  0
 21 22  1  0
 22 23  2  0
 23 24  1  0
 24 25  2  0
 20 25  1  0
  9 26  2  0
 26 27  1  0
 27 28  2  0
  7 28  1  0
 28 29  1  0
 29 30  1  0
 29 31  1  0
 29 32  1  0
M  END
>  <pIC50>  (194) 
7.44

>  <chembl_id>  (194) 
CHEMBL3644020

>  <canonical_smiles>  (194) 
C[C@@H](O)[C@@H](C)Oc1nc(Nc2ccc(cc2)S(=O)(=O)c3ccccc3)ncc1C(F)(F)F

$$$$
CHEMBL3644021
     RDKit          2D

 29 30  0  0  1  0  0  0  0  0999 V2000
    2.1434    1.2375    0.0000 C   0  0  0  0  0  0  0  0  0  0  0  0
    2.8579    0.8250    0.0000 C   0  0  0  0  0  0  0  0  0  0  0  0
    3.5724    1.2375    0.0000 O   0  0  0  0  0  0  0  0  0  0  0  0
    2.8579    0.0000    0.0000 C   0  0  0  0  0  0  0  0  0  0  0  0
    3.5724   -0.4125    0.0000 C   0  0  0  0  0  0  0  0  0  0  0  0
    2.1434   -0.4125    0.0000 O   0  0  0  0  0  0  0  0  0  0  0  0
    2.1434   -1.2375    0.0000 C   0  0  0  0  0  0  0  0  0  0  0  0
    2.8579   -1.6500    0.0000 N   0  0  0  0  0  0  0  0  0  0  0  0
    2.8579   -2.4750    0.0000 C   0  0  0  0  0  0  0  0  0  0  0  0
    3.5724   -2.8875    0.0000 N   0  0  0  0  0  0  0  0  0  0  0  0
    3.5724   -3.7125    0.0000 C   0  0  0  0  0  0  0  0  0  0  0  0
    4.2868   -4.1250    0.0000 C   0  0  0  0  0  0  0  0  0  0  0  0
    4.2868   -4.9500    0.0000 C   0  0  0  0  0  0  0  0  0  0  0  0
    3.5724   -5.3625    0.0000 C   0  0  0  0  0  0  0  0  0  0  0  0
    2.8579   -4.9500    0.0000 C   0  0  0  0  0  0  0  0  0  0  0  0
    2.8579   -4.1250    0.0000 C   0  0  0  0  0  0  0  0  0  0  0  0
    3.5724   -6.1875    0.0000 S   0  0  0  0  0  0  0  0  0  0  0  0
    2.7474   -6.1875    0.0000 O   0  0  0  0  0  0  0  0  0  0  0  0
    4.3974   -6.1875    0.0000 O   0  0  0  0  0  0  0  0  0  0  0  0
    3.5724   -7.0125    0.0000 C   0  0  0  0  0  0  0  0  0  0  0  0
    4.2868   -7.4250    0.0000 F   0  0  0  0  0  0  0  0  0  0  0  0
    2.8579   -7.4250    0.0000 F   0  0  0  0  0  0  0  0  0  0  0  0
    2.1434   -2.8875    0.0000 N   0  0  0  0  0  0  0  0  0  0  0  0
    1.4289   -2.4750    0.0000 C   0  0  0  0  0  0  0  0  0  0  0  0
    1.4289   -1.6500    0.0000 C   0  0  0  0  0  0  0  0  0  0  0  0
    0.7145   -1.2375    0.0000 C   0  0  0  0  0  0  0  0  0  0  0  0
    0.0000   -0.8250    0.0000 F   0  0  0  0  0  0  0  0  0  0  0  0
    1.1270   -0.5230    0.0000 F   0  0  0  0  0  0  0  0  0  0  0  0
    0.3020   -1.9520    0.0000 F   0  0  0  0  0  0  0  0  0  0  0  0
  2  1  1  1
  2  3  1  0
  2  4  1  0
  4  5  1  1
  4  6  1  0
  6  7  1  0
  7  8  2  0
  8  9  1  0
  9 10  1  0
 10 11  1  0
 11 12  2  0
 12 13  1  0
 13 14  2  0
 14 15  1  0
 15 16  2  0
 11 16  1  0
 14 17  1  0
 17 18  2  0
 17 19  2  0
 17 20  1  0
 20 21  1  0
 20 22  1  0
  9 23  2  0
 23 24  1  0
 24 25  2  0
  7 25  1  0
 25 26  1  0
 26 27  1  0
 26 28  1  0
 26 29  1  0
M  END
>  <pIC50>  (195) 
7.92

>  <chembl_id>  (195) 
CHEMBL3644021

>  <canonical_smiles>  (195) 
C[C@@H](O)[C@@H](C)Oc1nc(Nc2ccc(cc2)S(=O)(=O)C(F)F)ncc1C(F)(F)F

$$$$
CHEMBL3644022
     RDKit          2D

 31 33  0  0  1  0  0  0  0  0999 V2000
   -0.7145   12.5411    0.0000 C   0  0  0  0  0  0  0  0  0  0  0  0
    0.0000   12.1286    0.0000 C   0  0  0  0  0  0  0  0  0  0  0  0
    0.7145   12.5411    0.0000 O   0  0  0  0  0  0  0  0  0  0  0  0
    0.0000   11.3036    0.0000 C   0  0  0  0  0  0  0  0  0  0  0  0
    0.7145   10.8911    0.0000 C   0  0  0  0  0  0  0  0  0  0  0  0
   -0.7145   10.8911    0.0000 O   0  0  0  0  0  0  0  0  0  0  0  0
   -0.7145   10.0661    0.0000 C   0  0  0  0  0  0  0  0  0  0  0  0
    0.0000    9.6536    0.0000 N   0  0  0  0  0  0  0  0  0  0  0  0
    0.0000    8.8286    0.0000 C   0  0  0  0  0  0  0  0  0  0  0  0
    0.7145    8.4161    0.0000 N   0  0  0  0  0  0  0  0  0  0  0  0
    0.7145    7.5911    0.0000 C   0  0  0  0  0  0  0  0  0  0  0  0
    1.4289    7.1786    0.0000 C   0  0  0  0  0  0  0  0  0  0  0  0
    1.4289    6.3536    0.0000 C   0  0  0  0  0  0  0  0  0  0  0  0
    0.7145    5.9411    0.0000 C   0  0  0  0  0  0  0  0  0  0  0  0
    0.0000    6.3536    0.0000 C   0  0  0  0  0  0  0  0  0  0  0  0
    0.0000    7.1786    0.0000 C   0  0  0  0  0  0  0  0  0  0  0  0
    0.7145    5.1161    0.0000 S   0  0  0  0  0  0  0  0  0  0  0  0
   -0.1105    5.1161    0.0000 O   0  0  0  0  0  0  0  0  0  0  0  0
    1.5395    5.1161    0.0000 O   0  0  0  0  0  0  0  0  0  0  0  0
    0.7145    4.2911    0.0000 C   0  0  0  0  0  0  0  0  0  0  0  0
    1.3819    3.8062    0.0000 C   0  0  0  0  0  0  0  0  0  0  0  0
    1.1270    3.0215    0.0000 C   0  0  0  0  0  0  0  0  0  0  0  0
    0.3020    3.0215    0.0000 C   0  0  0  0  0  0  0  0  0  0  0  0
    0.0470    3.8062    0.0000 C   0  0  0  0  0  0  0  0  0  0  0  0
   -0.7145    8.4161    0.0000 N   0  0  0  0  0  0  0  0  0  0  0  0
   -1.4289    8.8286    0.0000 C   0  0  0  0  0  0  0  0  0  0  0  0
   -1.4289    9.6536    0.0000 C   0  0  0  0  0  0  0  0  0  0  0  0
   -2.1434   10.0661    0.0000 C   0  0  0  0  0  0  0  0  0  0  0  0
   -2.8579   10.4786    0.0000 F   0  0  0  0  0  0  0  0  0  0  0  0
   -1.7309   10.7805    0.0000 F   0  0  0  0  0  0  0  0  0  0  0  0
   -2.5559    9.3516    0.0000 F   0  0  0  0  0  0  0  0  0  0  0  0
  2  1  1  1
  2  3  1  0
  2  4  1  0
  4  5  1  1
  4  6  1  0
  6  7  1  0
  7  8  2  0
  8  9  1  0
  9 10  1  0
 10 11  1  0
 11 12  2  0
 12 13  1  0
 13 14  2  0
 14 15  1  0
 15 16  2  0
 11 16  1  0
 14 17  1  0
 17 18  2  0
 17 19  2  0
 17 20  1  0
 20 21  1  0
 21 22  1  0
 22 23  1  0
 23 24  1  0
 20 24  1  0
  9 25  2  0
 25 26  1  0
 26 27  2  0
  7 27  1  0
 27 28  1  0
 28 29  1  0
 28 30  1  0
 28 31  1  0
M  END
>  <pIC50>  (196) 
7.68

>  <chembl_id>  (196) 
CHEMBL3644022

>  <canonical_smiles>  (196) 
C[C@@H](O)[C@@H](C)Oc1nc(Nc2ccc(cc2)S(=O)(=O)C3CCCC3)ncc1C(F)(F)F

$$$$
CHEMBL3644023
     RDKit          2D

 30 31  0  0  1  0  0  0  0  0999 V2000
    3.5724   -0.4125    0.0000 C   0  0  0  0  0  0  0  0  0  0  0  0
    2.8579    0.0000    0.0000 C   0  0  0  0  0  0  0  0  0  0  0  0
    2.1434   -0.4125    0.0000 O   0  0  0  0  0  0  0  0  0  0  0  0
    2.1434   -1.2375    0.0000 C   0  0  0  0  0  0  0  0  0  0  0  0
    2.8579   -1.6500    0.0000 N   0  0  0  0  0  0  0  0  0  0  0  0
    2.8579   -2.4750    0.0000 C   0  0  0  0  0  0  0  0  0  0  0  0
    3.5724   -2.8875    0.0000 N   0  0  0  0  0  0  0  0  0  0  0  0
    3.5724   -3.7125    0.0000 C   0  0  0  0  0  0  0  0  0  0  0  0
    4.2868   -4.1250    0.0000 C   0  0  0  0  0  0  0  0  0  0  0  0
    4.2868   -4.9500    0.0000 C   0  0  0  0  0  0  0  0  0  0  0  0
    3.5724   -5.3625    0.0000 C   0  0  0  0  0  0  0  0  0  0  0  0
    2.8579   -4.9500    0.0000 C   0  0  0  0  0  0  0  0  0  0  0  0
    2.8579   -4.1250    0.0000 C   0  0  0  0  0  0  0  0  0  0  0  0
    3.5724   -6.1875    0.0000 S   0  0  0  0  0  0  0  0  0  0  0  0
    4.3974   -6.1875    0.0000 O   0  0  0  0  0  0  0  0  0  0  0  0
    2.7474   -6.1875    0.0000 O   0  0  0  0  0  0  0  0  0  0  0  0
    3.5724   -7.0125    0.0000 C   0  0  0  0  0  0  0  0  0  0  0  0
    2.8579   -7.4250    0.0000 C   0  0  0  0  0  0  0  0  0  0  0  0
    2.8579   -8.2500    0.0000 C   0  0  0  0  0  0  0  0  0  0  0  0
    2.1434   -2.8875    0.0000 N   0  0  0  0  0  0  0  0  0  0  0  0
    1.4289   -2.4750    0.0000 C   0  0  0  0  0  0  0  0  0  0  0  0
    1.4289   -1.6500    0.0000 C   0  0  0  0  0  0  0  0  0  0  0  0
    0.7145   -1.2375    0.0000 C   0  0  0  0  0  0  0  0  0  0  0  0
    0.0000   -0.8250    0.0000 F   0  0  0  0  0  0  0  0  0  0  0  0
    1.1270   -0.5230    0.0000 F   0  0  0  0  0  0  0  0  0  0  0  0
    0.3020   -1.9520    0.0000 F   0  0  0  0  0  0  0  0  0  0  0  0
    2.8579    0.8250    0.0000 C   0  0  0  0  0  0  0  0  0  0  0  0
    2.8579    1.6500    0.0000 C   0  0  0  0  0  0  0  0  0  0  0  0
    3.6829    0.8250    0.0000 C   0  0  0  0  0  0  0  0  0  0  0  0
    2.0329    0.8250    0.0000 O   0  0  0  0  0  0  0  0  0  0  0  0
  2  1  1  1
  2  3  1  0
  3  4  1  0
  4  5  2  0
  5  6  1  0
  6  7  1  0
  7  8  1  0
  8  9  2  0
  9 10  1  0
 10 11  2  0
 11 12  1  0
 12 13  2  0
  8 13  1  0
 11 14  1  0
 14 15  2  0
 14 16  2  0
 14 17  1  0
 17 18  1  0
 18 19  2  0
  6 20  2  0
 20 21  1  0
 21 22  2  0
  4 22  1  0
 22 23  1  0
 23 24  1  0
 23 25  1  0
 23 26  1  0
  2 27  1  0
 27 28  1  0
 27 29  1  0
 27 30  1  0
M  END
>  <pIC50>  (197) 
7.96

>  <chembl_id>  (197) 
CHEMBL3644023

>  <canonical_smiles>  (197) 
C[C@@H](Oc1nc(Nc2ccc(cc2)S(=O)(=O)CC=C)ncc1C(F)(F)F)C(C)(C)O

$$$$
CHEMBL3644024
     RDKit          2D

 29 30  0  0  1  0  0  0  0  0999 V2000
    2.1434    1.2375    0.0000 C   0  0  0  0  0  0  0  0  0  0  0  0
    2.8579    0.8250    0.0000 C   0  0  0  0  0  0  0  0  0  0  0  0
    3.5724    1.2375    0.0000 O   0  0  0  0  0  0  0  0  0  0  0  0
    2.8579    0.0000    0.0000 C   0  0  0  0  0  0  0  0  0  0  0  0
    3.5724   -0.4125    0.0000 C   0  0  0  0  0  0  0  0  0  0  0  0
    2.1434   -0.4125    0.0000 O   0  0  0  0  0  0  0  0  0  0  0  0
    2.1434   -1.2375    0.0000 C   0  0  0  0  0  0  0  0  0  0  0  0
    2.8579   -1.6500    0.0000 N   0  0  0  0  0  0  0  0  0  0  0  0
    2.8579   -2.4750    0.0000 C   0  0  0  0  0  0  0  0  0  0  0  0
    3.5724   -2.8875    0.0000 N   0  0  0  0  0  0  0  0  0  0  0  0
    3.5724   -3.7125    0.0000 C   0  0  0  0  0  0  0  0  0  0  0  0
    4.2868   -4.1250    0.0000 C   0  0  0  0  0  0  0  0  0  0  0  0
    4.2868   -4.9500    0.0000 C   0  0  0  0  0  0  0  0  0  0  0  0
    3.5724   -5.3625    0.0000 C   0  0  0  0  0  0  0  0  0  0  0  0
    2.8579   -4.9500    0.0000 C   0  0  0  0  0  0  0  0  0  0  0  0
    2.8579   -4.1250    0.0000 C   0  0  0  0  0  0  0  0  0  0  0  0
    3.5724   -6.1875    0.0000 S   0  0  0  0  0  0  0  0  0  0  0  0
    2.7474   -6.1875    0.0000 O   0  0  0  0  0  0  0  0  0  0  0  0
    4.3974   -6.1875    0.0000 O   0  0  0  0  0  0  0  0  0  0  0  0
    3.5724   -7.0125    0.0000 C   0  0  0  0  0  0  0  0  0  0  0  0
    4.2868   -7.4250    0.0000 C   0  0  0  0  0  0  0  0  0  0  0  0
    2.8579   -7.4250    0.0000 C   0  0  0  0  0  0  0  0  0  0  0  0
    2.1434   -2.8875    0.0000 N   0  0  0  0  0  0  0  0  0  0  0  0
    1.4289   -2.4750    0.0000 C   0  0  0  0  0  0  0  0  0  0  0  0
    1.4289   -1.6500    0.0000 C   0  0  0  0  0  0  0  0  0  0  0  0
    0.7145   -1.2375    0.0000 C   0  0  0  0  0  0  0  0  0  0  0  0
    0.0000   -0.8250    0.0000 F   0  0  0  0  0  0  0  0  0  0  0  0
    1.1270   -0.5230    0.0000 F   0  0  0  0  0  0  0  0  0  0  0  0
    0.3020   -1.9520    0.0000 F   0  0  0  0  0  0  0  0  0  0  0  0
  2  1  1  1
  2  3  1  0
  2  4  1  0
  4  5  1  1
  4  6  1  0
  6  7  1  0
  7  8  2  0
  8  9  1  0
  9 10  1  0
 10 11  1  0
 11 12  2  0
 12 13  1  0
 13 14  2  0
 14 15  1  0
 15 16  2  0
 11 16  1  0
 14 17  1  0
 17 18  2  0
 17 19  2  0
 17 20  1  0
 20 21  1  0
 20 22  1  0
  9 23  2  0
 23 24  1  0
 24 25  2  0
  7 25  1  0
 25 26  1  0
 26 27  1  0
 26 28  1  0
 26 29  1  0
M  END
>  <pIC50>  (198) 
8.22

>  <chembl_id>  (198) 
CHEMBL3644024

>  <canonical_smiles>  (198) 
C[C@@H](O)[C@@H](C)Oc1nc(Nc2ccc(cc2)S(=O)(=O)C(C)C)ncc1C(F)(F)F

$$$$
CHEMBL3644025
     RDKit          2D

 30 31  0  0  1  0  0  0  0  0999 V2000
    3.5724   -0.4125    0.0000 C   0  0  0  0  0  0  0  0  0  0  0  0
    2.8579    0.0000    0.0000 C   0  0  0  0  0  0  0  0  0  0  0  0
    2.1434   -0.4125    0.0000 O   0  0  0  0  0  0  0  0  0  0  0  0
    2.1434   -1.2375    0.0000 C   0  0  0  0  0  0  0  0  0  0  0  0
    2.8579   -1.6500    0.0000 N   0  0  0  0  0  0  0  0  0  0  0  0
    2.8579   -2.4750    0.0000 C   0  0  0  0  0  0  0  0  0  0  0  0
    3.5724   -2.8875    0.0000 N   0  0  0  0  0  0  0  0  0  0  0  0
    3.5724   -3.7125    0.0000 C   0  0  0  0  0  0  0  0  0  0  0  0
    4.2868   -4.1250    0.0000 C   0  0  0  0  0  0  0  0  0  0  0  0
    4.2868   -4.9500    0.0000 C   0  0  0  0  0  0  0  0  0  0  0  0
    3.5724   -5.3625    0.0000 C   0  0  0  0  0  0  0  0  0  0  0  0
    2.8579   -4.9500    0.0000 C   0  0  0  0  0  0  0  0  0  0  0  0
    2.8579   -4.1250    0.0000 C   0  0  0  0  0  0  0  0  0  0  0  0
    3.5724   -6.1875    0.0000 S   0  0  0  0  0  0  0  0  0  0  0  0
    4.3974   -6.1875    0.0000 O   0  0  0  0  0  0  0  0  0  0  0  0
    2.7474   -6.1875    0.0000 O   0  0  0  0  0  0  0  0  0  0  0  0
    3.5724   -7.0125    0.0000 C   0  0  0  0  0  0  0  0  0  0  0  0
    2.8579   -7.4250    0.0000 C   0  0  0  0  0  0  0  0  0  0  0  0
    2.1434   -7.8375    0.0000 C   0  0  0  0  0  0  0  0  0  0  0  0
    2.1434   -2.8875    0.0000 N   0  0  0  0  0  0  0  0  0  0  0  0
    1.4289   -2.4750    0.0000 C   0  0  0  0  0  0  0  0  0  0  0  0
    1.4289   -1.6500    0.0000 C   0  0  0  0  0  0  0  0  0  0  0  0
    0.7145   -1.2375    0.0000 C   0  0  0  0  0  0  0  0  0  0  0  0
    0.0000   -0.8250    0.0000 F   0  0  0  0  0  0  0  0  0  0  0  0
    1.1270   -0.5230    0.0000 F   0  0  0  0  0  0  0  0  0  0  0  0
    0.3020   -1.9520    0.0000 F   0  0  0  0  0  0  0  0  0  0  0  0
    2.8579    0.8250    0.0000 C   0  0  0  0  0  0  0  0  0  0  0  0
    2.8579    1.6500    0.0000 C   0  0  0  0  0  0  0  0  0  0  0  0
    3.6829    0.8250    0.0000 C   0  0  0  0  0  0  0  0  0  0  0  0
    2.0329    0.8250    0.0000 O   0  0  0  0  0  0  0  0  0  0  0  0
  2  1  1  1
  2  3  1  0
  3  4  1  0
  4  5  2  0
  5  6  1  0
  6  7  1  0
  7  8  1  0
  8  9  2  0
  9 10  1  0
 10 11  2  0
 11 12  1  0
 12 13  2  0
  8 13  1  0
 11 14  1  0
 14 15  2  0
 14 16  2  0
 14 17  1  0
 17 18  1  0
 18 19  3  0
  6 20  2  0
 20 21  1  0
 21 22  2  0
  4 22  1  0
 22 23  1  0
 23 24  1  0
 23 25  1  0
 23 26  1  0
  2 27  1  0
 27 28  1  0
 27 29  1  0
 27 30  1  0
M  END
>  <pIC50>  (199) 
7.37

>  <chembl_id>  (199) 
CHEMBL3644025

>  <canonical_smiles>  (199) 
C[C@@H](Oc1nc(Nc2ccc(cc2)S(=O)(=O)CC#C)ncc1C(F)(F)F)C(C)(C)O

$$$$
CHEMBL3644026
     RDKit          2D

 29 30  0  0  1  0  0  0  0  0999 V2000
    2.1434    1.2375    0.0000 C   0  0  0  0  0  0  0  0  0  0  0  0
    2.8579    0.8250    0.0000 C   0  0  0  0  0  0  0  0  0  0  0  0
    3.5724    1.2375    0.0000 O   0  0  0  0  0  0  0  0  0  0  0  0
    2.8579    0.0000    0.0000 C   0  0  0  0  0  0  0  0  0  0  0  0
    3.5724   -0.4125    0.0000 C   0  0  0  0  0  0  0  0  0  0  0  0
    2.1434   -0.4125    0.0000 O   0  0  0  0  0  0  0  0  0  0  0  0
    2.1434   -1.2375    0.0000 C   0  0  0  0  0  0  0  0  0  0  0  0
    2.8579   -1.6500    0.0000 N   0  0  0  0  0  0  0  0  0  0  0  0
    2.8579   -2.4750    0.0000 C   0  0  0  0  0  0  0  0  0  0  0  0
    3.5724   -2.8875    0.0000 N   0  0  0  0  0  0  0  0  0  0  0  0
    3.5724   -3.7125    0.0000 C   0  0  0  0  0  0  0  0  0  0  0  0
    4.2868   -4.1250    0.0000 C   0  0  0  0  0  0  0  0  0  0  0  0
    4.2868   -4.9500    0.0000 C   0  0  0  0  0  0  0  0  0  0  0  0
    3.5724   -5.3625    0.0000 C   0  0  0  0  0  0  0  0  0  0  0  0
    2.8579   -4.9500    0.0000 C   0  0  0  0  0  0  0  0  0  0  0  0
    2.8579   -4.1250    0.0000 C   0  0  0  0  0  0  0  0  0  0  0  0
    3.5724   -6.1875    0.0000 S   0  0  0  0  0  0  0  0  0  0  0  0
    2.7474   -6.1875    0.0000 O   0  0  0  0  0  0  0  0  0  0  0  0
    4.3974   -6.1875    0.0000 O   0  0  0  0  0  0  0  0  0  0  0  0
    3.5724   -7.0125    0.0000 C   0  0  0  0  0  0  0  0  0  0  0  0
    2.8579   -7.4250    0.0000 C   0  0  0  0  0  0  0  0  0  0  0  0
    2.8579   -8.2500    0.0000 O   0  0  0  0  0  0  0  0  0  0  0  0
    2.1434   -2.8875    0.0000 N   0  0  0  0  0  0  0  0  0  0  0  0
    1.4289   -2.4750    0.0000 C   0  0  0  0  0  0  0  0  0  0  0  0
    1.4289   -1.6500    0.0000 C   0  0  0  0  0  0  0  0  0  0  0  0
    0.7145   -1.2375    0.0000 C   0  0  0  0  0  0  0  0  0  0  0  0
    0.0000   -0.8250    0.0000 F   0  0  0  0  0  0  0  0  0  0  0  0
    1.1270   -0.5230    0.0000 F   0  0  0  0  0  0  0  0  0  0  0  0
    0.3020   -1.9520    0.0000 F   0  0  0  0  0  0  0  0  0  0  0  0
  2  1  1  1
  2  3  1  0
  2  4  1  0
  4  5  1  1
  4  6  1  0
  6  7  1  0
  7  8  2  0
  8  9  1  0
  9 10  1  0
 10 11  1  0
 11 12  2  0
 12 13  1  0
 13 14  2  0
 14 15  1  0
 15 16  2  0
 11 16  1  0
 14 17  1  0
 17 18  2  0
 17 19  2  0
 17 20  1  0
 20 21  1  0
 21 22  1  0
  9 23  2  0
 23 24  1  0
 24 25  2  0
  7 25  1  0
 25 26  1  0
 26 27  1  0
 26 28  1  0
 26 29  1  0
M  END
>  <pIC50>  (200) 
8.52

>  <chembl_id>  (200) 
CHEMBL3644026

>  <canonical_smiles>  (200) 
C[C@@H](O)[C@@H](C)Oc1nc(Nc2ccc(cc2)S(=O)(=O)CCO)ncc1C(F)(F)F

$$$$
CHEMBL3644027
     RDKit          2D

 27 28  0  0  1  0  0  0  0  0999 V2000
   -0.7145   -3.7125    0.0000 C   0  0  0  0  0  0  0  0  0  0  0  0
    0.0000   -4.1250    0.0000 O   0  0  0  0  0  0  0  0  0  0  0  0
    0.7145   -3.7125    0.0000 C   0  0  0  0  0  0  0  0  0  0  0  0
    1.4289   -4.1250    0.0000 C   0  0  0  0  0  0  0  0  0  0  0  0
    1.4289   -4.9500    0.0000 C   0  0  0  0  0  0  0  0  0  0  0  0
    2.1434   -3.7125    0.0000 O   0  0  0  0  0  0  0  0  0  0  0  0
    2.1434   -2.8875    0.0000 C   0  0  0  0  0  0  0  0  0  0  0  0
    1.4289   -2.4750    0.0000 N   0  0  0  0  0  0  0  0  0  0  0  0
    1.4289   -1.6500    0.0000 C   0  0  0  0  0  0  0  0  0  0  0  0
    0.7145   -1.2375    0.0000 N   0  0  0  0  0  0  0  0  0  0  0  0
    0.7145   -0.4125    0.0000 C   0  0  0  0  0  0  0  0  0  0  0  0
    0.0000    0.0000    0.0000 C   0  0  0  0  0  0  0  0  0  0  0  0
    0.0000    0.8250    0.0000 C   0  0  0  0  0  0  0  0  0  0  0  0
    0.7145    1.2375    0.0000 C   0  0  0  0  0  0  0  0  0  0  0  0
    1.4289    0.8250    0.0000 C   0  0  0  0  0  0  0  0  0  0  0  0
    1.4289    0.0000    0.0000 C   0  0  0  0  0  0  0  0  0  0  0  0
    0.7145    2.0625    0.0000 S   0  0  0  0  0  0  0  0  0  0  0  0
    0.7145    2.8875    0.0000 O   0  0  0  0  0  0  0  0  0  0  0  0
    1.5395    2.0625    0.0000 O   0  0  0  0  0  0  0  0  0  0  0  0
   -0.1105    2.0625    0.0000 C   0  0  0  0  0  0  0  0  0  0  0  0
    2.1434   -1.2375    0.0000 N   0  0  0  0  0  0  0  0  0  0  0  0
    2.8579   -1.6500    0.0000 C   0  0  0  0  0  0  0  0  0  0  0  0
    2.8579   -2.4750    0.0000 C   0  0  0  0  0  0  0  0  0  0  0  0
    3.5724   -2.8875    0.0000 C   0  0  0  0  0  0  0  0  0  0  0  0
    4.2868   -3.3000    0.0000 F   0  0  0  0  0  0  0  0  0  0  0  0
    3.1599   -3.6020    0.0000 F   0  0  0  0  0  0  0  0  0  0  0  0
    3.9849   -2.1730    0.0000 F   0  0  0  0  0  0  0  0  0  0  0  0
  1  2  1  0
  2  3  1  0
  4  3  1  0
  4  5  1  6
  4  6  1  0
  6  7  1  0
  7  8  2  0
  8  9  1  0
  9 10  1  0
 10 11  1  0
 11 12  2  0
 12 13  1  0
 13 14  2  0
 14 15  1  0
 15 16  2  0
 11 16  1  0
 14 17  1  0
 17 18  2  0
 17 19  2  0
 17 20  1  0
  9 21  2  0
 21 22  1  0
 22 23  2  0
  7 23  1  0
 23 24  1  0
 24 25  1  0
 24 26  1  0
 24 27  1  0
M  END
>  <pIC50>  (201) 
7.92

>  <chembl_id>  (201) 
CHEMBL3644027

>  <canonical_smiles>  (201) 
COC[C@@H](C)Oc1nc(Nc2ccc(cc2)S(=O)(=O)C)ncc1C(F)(F)F

$$$$
CHEMBL3644028
     RDKit          2D

 25 26  0  0  0  0  0  0  0  0999 V2000
   -0.7145    0.4125    0.0000 C   0  0  0  0  0  0  0  0  0  0  0  0
   -0.7145   -0.4125    0.0000 S   0  0  0  0  0  0  0  0  0  0  0  0
   -1.5395   -0.4125    0.0000 O   0  0  0  0  0  0  0  0  0  0  0  0
    0.1105   -0.4125    0.0000 O   0  0  0  0  0  0  0  0  0  0  0  0
   -0.7145   -1.2375    0.0000 C   0  0  0  0  0  0  0  0  0  0  0  0
    0.0000   -1.6500    0.0000 C   0  0  0  0  0  0  0  0  0  0  0  0
    0.0000   -2.4750    0.0000 C   0  0  0  0  0  0  0  0  0  0  0  0
   -0.7145   -2.8875    0.0000 C   0  0  0  0  0  0  0  0  0  0  0  0
   -0.7145   -3.7125    0.0000 N   0  0  0  0  0  0  0  0  0  0  0  0
    0.0000   -4.1250    0.0000 C   0  0  0  0  0  0  0  0  0  0  0  0
    0.7145   -3.7125    0.0000 N   0  0  0  0  0  0  0  0  0  0  0  0
    1.4289   -4.1250    0.0000 C   0  0  0  0  0  0  0  0  0  0  0  0
    1.4289   -4.9500    0.0000 C   0  0  0  0  0  0  0  0  0  0  0  0
    0.7145   -5.3625    0.0000 C   0  0  0  0  0  0  0  0  0  0  0  0
    0.7145   -6.1875    0.0000 O   0  0  0  0  0  0  0  0  0  0  0  0
    0.0000   -6.6000    0.0000 C   0  0  0  0  0  0  0  0  0  0  0  0
    0.0000   -7.4250    0.0000 C   0  0  0  0  0  0  0  0  0  0  0  0
    0.0000   -8.2500    0.0000 C   0  0  0  0  0  0  0  0  0  0  0  0
    0.0000   -4.9500    0.0000 N   0  0  0  0  0  0  0  0  0  0  0  0
    2.1434   -5.3625    0.0000 C   0  0  0  0  0  0  0  0  0  0  0  0
    2.8579   -5.7750    0.0000 F   0  0  0  0  0  0  0  0  0  0  0  0
    1.7309   -6.0770    0.0000 F   0  0  0  0  0  0  0  0  0  0  0  0
    2.5559   -4.6480    0.0000 F   0  0  0  0  0  0  0  0  0  0  0  0
   -1.4289   -2.4750    0.0000 C   0  0  0  0  0  0  0  0  0  0  0  0
   -1.4289   -1.6500    0.0000 C   0  0  0  0  0  0  0  0  0  0  0  0
  1  2  1  0
  2  3  2  0
  2  4  2  0
  2  5  1  0
  5  6  2  0
  6  7  1  0
  7  8  2  0
  8  9  1  0
  9 10  1  0
 10 11  2  0
 11 12  1  0
 12 13  2  0
 13 14  1  0
 14 15  1  0
 15 16  1  0
 16 17  1  0
 17 18  3  0
 14 19  2  0
 10 19  1  0
 13 20  1  0
 20 21  1  0
 20 22  1  0
 20 23  1  0
  8 24  1  0
 24 25  2  0
  5 25  1  0
M  END
>  <pIC50>  (202) 
7.60

>  <chembl_id>  (202) 
CHEMBL3644028

>  <canonical_smiles>  (202) 
CS(=O)(=O)c1ccc(Nc2ncc(c(OCC#C)n2)C(F)(F)F)cc1

$$$$
CHEMBL3644029
     RDKit          2D

 28 29  0  0  0  0  0  0  0  0999 V2000
   -0.7145    0.4125    0.0000 C   0  0  0  0  0  0  0  0  0  0  0  0
   -0.7145   -0.4125    0.0000 S   0  0  0  0  0  0  0  0  0  0  0  0
   -1.5395   -0.4125    0.0000 O   0  0  0  0  0  0  0  0  0  0  0  0
    0.1105   -0.4125    0.0000 O   0  0  0  0  0  0  0  0  0  0  0  0
   -0.7145   -1.2375    0.0000 C   0  0  0  0  0  0  0  0  0  0  0  0
    0.0000   -1.6500    0.0000 C   0  0  0  0  0  0  0  0  0  0  0  0
    0.0000   -2.4750    0.0000 C   0  0  0  0  0  0  0  0  0  0  0  0
   -0.7145   -2.8875    0.0000 C   0  0  0  0  0  0  0  0  0  0  0  0
   -0.7145   -3.7125    0.0000 N   0  0  0  0  0  0  0  0  0  0  0  0
    0.0000   -4.1250    0.0000 C   0  0  0  0  0  0  0  0  0  0  0  0
    0.7145   -3.7125    0.0000 N   0  0  0  0  0  0  0  0  0  0  0  0
    1.4289   -4.1250    0.0000 C   0  0  0  0  0  0  0  0  0  0  0  0
    1.4289   -4.9500    0.0000 C   0  0  0  0  0  0  0  0  0  0  0  0
    0.7145   -5.3625    0.0000 C   0  0  0  0  0  0  0  0  0  0  0  0
    0.7145   -6.1875    0.0000 O   0  0  0  0  0  0  0  0  0  0  0  0
    1.4289   -6.6000    0.0000 C   0  0  0  0  0  0  0  0  0  0  0  0
    1.4289   -7.4250    0.0000 C   0  0  0  0  0  0  0  0  0  0  0  0
    2.1434   -7.8375    0.0000 C   0  0  0  0  0  0  0  0  0  0  0  0
    2.8579   -8.2500    0.0000 F   0  0  0  0  0  0  0  0  0  0  0  0
    1.7309   -8.5520    0.0000 F   0  0  0  0  0  0  0  0  0  0  0  0
    2.5559   -7.1230    0.0000 F   0  0  0  0  0  0  0  0  0  0  0  0
    0.0000   -4.9500    0.0000 N   0  0  0  0  0  0  0  0  0  0  0  0
    2.1434   -5.3625    0.0000 C   0  0  0  0  0  0  0  0  0  0  0  0
    2.8579   -5.7750    0.0000 F   0  0  0  0  0  0  0  0  0  0  0  0
    1.7309   -6.0770    0.0000 F   0  0  0  0  0  0  0  0  0  0  0  0
    2.5559   -4.6480    0.0000 F   0  0  0  0  0  0  0  0  0  0  0  0
   -1.4289   -2.4750    0.0000 C   0  0  0  0  0  0  0  0  0  0  0  0
   -1.4289   -1.6500    0.0000 C   0  0  0  0  0  0  0  0  0  0  0  0
  1  2  1  0
  2  3  2  0
  2  4  2  0
  2  5  1  0
  5  6  2  0
  6  7  1  0
  7  8  2  0
  8  9  1  0
  9 10  1  0
 10 11  2  0
 11 12  1  0
 12 13  2  0
 13 14  1  0
 14 15  1  0
 15 16  1  0
 16 17  1  0
 17 18  1  0
 18 19  1  0
 18 20  1  0
 18 21  1  0
 14 22  2  0
 10 22  1  0
 13 23  1  0
 23 24  1  0
 23 25  1  0
 23 26  1  0
  8 27  1  0
 27 28  2  0
  5 28  1  0
M  END
>  <pIC50>  (203) 
7.03

>  <chembl_id>  (203) 
CHEMBL3644029

>  <canonical_smiles>  (203) 
CS(=O)(=O)c1ccc(Nc2ncc(c(OCCC(F)(F)F)n2)C(F)(F)F)cc1

$$$$
CHEMBL3644030
     RDKit          2D

 25 26  0  0  0  0  0  0  0  0999 V2000
   -0.7145    0.4125    0.0000 C   0  0  0  0  0  0  0  0  0  0  0  0
   -0.7145   -0.4125    0.0000 S   0  0  0  0  0  0  0  0  0  0  0  0
   -1.5395   -0.4125    0.0000 O   0  0  0  0  0  0  0  0  0  0  0  0
    0.1105   -0.4125    0.0000 O   0  0  0  0  0  0  0  0  0  0  0  0
   -0.7145   -1.2375    0.0000 C   0  0  0  0  0  0  0  0  0  0  0  0
    0.0000   -1.6500    0.0000 C   0  0  0  0  0  0  0  0  0  0  0  0
    0.0000   -2.4750    0.0000 C   0  0  0  0  0  0  0  0  0  0  0  0
   -0.7145   -2.8875    0.0000 C   0  0  0  0  0  0  0  0  0  0  0  0
   -0.7145   -3.7125    0.0000 N   0  0  0  0  0  0  0  0  0  0  0  0
    0.0000   -4.1250    0.0000 C   0  0  0  0  0  0  0  0  0  0  0  0
    0.7145   -3.7125    0.0000 N   0  0  0  0  0  0  0  0  0  0  0  0
    1.4289   -4.1250    0.0000 C   0  0  0  0  0  0  0  0  0  0  0  0
    1.4289   -4.9500    0.0000 C   0  0  0  0  0  0  0  0  0  0  0  0
    0.7145   -5.3625    0.0000 C   0  0  0  0  0  0  0  0  0  0  0  0
    0.7145   -6.1875    0.0000 O   0  0  0  0  0  0  0  0  0  0  0  0
    1.4289   -6.6000    0.0000 C   0  0  0  0  0  0  0  0  0  0  0  0
    1.4289   -7.4250    0.0000 C   0  0  0  0  0  0  0  0  0  0  0  0
    2.1434   -7.8375    0.0000 C   0  0  0  0  0  0  0  0  0  0  0  0
    0.0000   -4.9500    0.0000 N   0  0  0  0  0  0  0  0  0  0  0  0
    2.1434   -5.3625    0.0000 C   0  0  0  0  0  0  0  0  0  0  0  0
    2.8579   -5.7750    0.0000 F   0  0  0  0  0  0  0  0  0  0  0  0
    1.7309   -6.0770    0.0000 F   0  0  0  0  0  0  0  0  0  0  0  0
    2.5559   -4.6480    0.0000 F   0  0  0  0  0  0  0  0  0  0  0  0
   -1.4289   -2.4750    0.0000 C   0  0  0  0  0  0  0  0  0  0  0  0
   -1.4289   -1.6500    0.0000 C   0  0  0  0  0  0  0  0  0  0  0  0
  1  2  1  0
  2  3  2  0
  2  4  2  0
  2  5  1  0
  5  6  2  0
  6  7  1  0
  7  8  2  0
  8  9  1  0
  9 10  1  0
 10 11  2  0
 11 12  1  0
 12 13  2  0
 13 14  1  0
 14 15  1  0
 15 16  1  0
 16 17  1  0
 17 18  2  0
 14 19  2  0
 10 19  1  0
 13 20  1  0
 20 21  1  0
 20 22  1  0
 20 23  1  0
  8 24  1  0
 24 25  2  0
  5 25  1  0
M  END
>  <pIC50>  (204) 
7.31

>  <chembl_id>  (204) 
CHEMBL3644030

>  <canonical_smiles>  (204) 
CS(=O)(=O)c1ccc(Nc2ncc(c(OCC=C)n2)C(F)(F)F)cc1

$$$$
CHEMBL3644031
     RDKit          2D

 28 30  0  0  0  0  0  0  0  0999 V2000
    5.0013    0.4125    0.0000 C   0  0  0  0  0  0  0  0  0  0  0  0
    5.0013   -0.4125    0.0000 S   0  0  0  0  0  0  0  0  0  0  0  0
    4.1763   -0.4125    0.0000 O   0  0  0  0  0  0  0  0  0  0  0  0
    5.8263   -0.4125    0.0000 O   0  0  0  0  0  0  0  0  0  0  0  0
    5.0013   -1.2375    0.0000 C   0  0  0  0  0  0  0  0  0  0  0  0
    5.7158   -1.6500    0.0000 C   0  0  0  0  0  0  0  0  0  0  0  0
    5.7158   -2.4750    0.0000 C   0  0  0  0  0  0  0  0  0  0  0  0
    5.0013   -2.8875    0.0000 C   0  0  0  0  0  0  0  0  0  0  0  0
    5.0013   -3.7125    0.0000 N   0  0  0  0  0  0  0  0  0  0  0  0
    5.7158   -4.1250    0.0000 C   0  0  0  0  0  0  0  0  0  0  0  0
    6.4302   -3.7125    0.0000 N   0  0  0  0  0  0  0  0  0  0  0  0
    7.1447   -4.1250    0.0000 C   0  0  0  0  0  0  0  0  0  0  0  0
    7.1447   -4.9500    0.0000 C   0  0  0  0  0  0  0  0  0  0  0  0
    6.4302   -5.3625    0.0000 C   0  0  0  0  0  0  0  0  0  0  0  0
    6.4302   -6.1875    0.0000 O   0  0  0  0  0  0  0  0  0  0  0  0
    5.7158   -6.6000    0.0000 C   0  0  0  0  0  0  0  0  0  0  0  0
    5.7158   -7.4250    0.0000 C   0  0  0  0  0  0  0  0  0  0  0  0
    5.0013   -7.8375    0.0000 C   0  0  0  0  0  0  0  0  0  0  0  0
    4.2868   -7.4250    0.0000 C   0  0  0  0  0  0  0  0  0  0  0  0
    4.2868   -6.6000    0.0000 C   0  0  0  0  0  0  0  0  0  0  0  0
    5.0013   -6.1875    0.0000 C   0  0  0  0  0  0  0  0  0  0  0  0
    5.7158   -4.9500    0.0000 N   0  0  0  0  0  0  0  0  0  0  0  0
    7.8592   -5.3625    0.0000 C   0  0  0  0  0  0  0  0  0  0  0  0
    8.5737   -5.7750    0.0000 F   0  0  0  0  0  0  0  0  0  0  0  0
    7.4467   -6.0770    0.0000 F   0  0  0  0  0  0  0  0  0  0  0  0
    8.2717   -4.6480    0.0000 F   0  0  0  0  0  0  0  0  0  0  0  0
    4.2868   -2.4750    0.0000 C   0  0  0  0  0  0  0  0  0  0  0  0
    4.2868   -1.6500    0.0000 C   0  0  0  0  0  0  0  0  0  0  0  0
  1  2  1  0
  2  3  2  0
  2  4  2  0
  2  5  1  0
  5  6  2  0
  6  7  1  0
  7  8  2  0
  8  9  1  0
  9 10  1  0
 10 11  2  0
 11 12  1  0
 12 13  2  0
 13 14  1  0
 14 15  1  0
 15 16  1  0
 16 17  1  0
 17 18  1  0
 18 19  1  0
 19 20  1  0
 20 21  1  0
 16 21  1  0
 14 22  2  0
 10 22  1  0
 13 23  1  0
 23 24  1  0
 23 25  1  0
 23 26  1  0
  8 27  1  0
 27 28  2  0
  5 28  1  0
M  END
>  <pIC50>  (205) 
6.32

>  <chembl_id>  (205) 
CHEMBL3644031

>  <canonical_smiles>  (205) 
CS(=O)(=O)c1ccc(Nc2ncc(c(OC3CCCCC3)n2)C(F)(F)F)cc1

$$$$
CHEMBL3648071
     RDKit          2D

 24 25  0  0  1  0  0  0  0  0999 V2000
    0.7145    1.2375    0.0000 C   0  0  0  0  0  0  0  0  0  0  0  0
    1.4289    0.8250    0.0000 C   0  0  0  0  0  0  0  0  0  0  0  0
    2.1434    1.2375    0.0000 O   0  0  0  0  0  0  0  0  0  0  0  0
    1.4289    0.0000    0.0000 C   0  0  0  0  0  0  0  0  0  0  0  0
    0.7145   -0.4125    0.0000 C   0  0  0  0  0  0  0  0  0  0  0  0
    2.1434   -0.4125    0.0000 N   0  0  0  0  0  0  0  0  0  0  0  0
    2.1434   -1.2375    0.0000 C   0  0  0  0  0  0  0  0  0  0  0  0
    2.8579   -1.6500    0.0000 N   0  0  0  0  0  0  0  0  0  0  0  0
    2.8579   -2.4750    0.0000 C   0  0  0  0  0  0  0  0  0  0  0  0
    3.5724   -2.8875    0.0000 N   0  0  0  0  0  0  0  0  0  0  0  0
    3.5724   -3.7125    0.0000 C   0  0  0  0  0  0  0  0  0  0  0  0
    4.2868   -4.1250    0.0000 C   0  0  0  0  0  0  0  0  0  0  0  0
    4.2868   -4.9500    0.0000 C   0  0  0  0  0  0  0  0  0  0  0  0
    3.5724   -5.3625    0.0000 C   0  0  0  0  0  0  0  0  0  0  0  0
    2.8579   -4.9500    0.0000 C   0  0  0  0  0  0  0  0  0  0  0  0
    2.8579   -4.1250    0.0000 C   0  0  0  0  0  0  0  0  0  0  0  0
    3.5724   -6.1875    0.0000 S   0  0  0  0  0  0  0  0  0  0  0  0
    3.5724   -7.0125    0.0000 N   0  0  0  0  0  0  0  0  0  0  0  0
    2.7474   -6.1875    0.0000 O   0  0  0  0  0  0  0  0  0  0  0  0
    4.3974   -6.1875    0.0000 C   0  0  0  0  0  0  0  0  0  0  0  0
    2.1434   -2.8875    0.0000 N   0  0  0  0  0  0  0  0  0  0  0  0
    1.4289   -2.4750    0.0000 C   0  0  0  0  0  0  0  0  0  0  0  0
    1.4289   -1.6500    0.0000 C   0  0  0  0  0  0  0  0  0  0  0  0
    0.7145   -1.2375    0.0000 Br  0  0  0  0  0  0  0  0  0  0  0  0
  2  1  1  1
  2  3  1  0
  2  4  1  0
  4  5  1  6
  4  6  1  0
  6  7  1  0
  7  8  2  0
  8  9  1  0
  9 10  1  0
 10 11  1  0
 11 12  2  0
 12 13  1  0
 13 14  2  0
 14 15  1  0
 15 16  2  0
 11 16  1  0
 14 17  1  0
 17 18  1  0
 17 19  2  0
 17 20  2  0
  9 21  2  0
 21 22  1  0
 22 23  2  0
  7 23  1  0
 23 24  1  0
M  END
>  <pIC50>  (206) 
7.70

>  <chembl_id>  (206) 
CHEMBL3648071

>  <canonical_smiles>  (206) 
C[C@@H](O)[C@@H](C)Nc1nc(Nc2ccc(cc2)S(=N)(=O)C)ncc1Br

$$$$
CHEMBL3648072
     RDKit          2D

 25 26  0  0  1  0  0  0  0  0999 V2000
    3.5724   -0.4125    0.0000 C   0  0  0  0  0  0  0  0  0  0  0  0
    2.8579    0.0000    0.0000 C   0  0  0  0  0  0  0  0  0  0  0  0
    2.1434   -0.4125    0.0000 N   0  0  0  0  0  0  0  0  0  0  0  0
    2.1434   -1.2375    0.0000 C   0  0  0  0  0  0  0  0  0  0  0  0
    2.8579   -1.6500    0.0000 N   0  0  0  0  0  0  0  0  0  0  0  0
    2.8579   -2.4750    0.0000 C   0  0  0  0  0  0  0  0  0  0  0  0
    3.5724   -2.8875    0.0000 N   0  0  0  0  0  0  0  0  0  0  0  0
    3.5724   -3.7125    0.0000 C   0  0  0  0  0  0  0  0  0  0  0  0
    4.2868   -4.1250    0.0000 C   0  0  0  0  0  0  0  0  0  0  0  0
    4.2868   -4.9500    0.0000 C   0  0  0  0  0  0  0  0  0  0  0  0
    3.5724   -5.3625    0.0000 C   0  0  0  0  0  0  0  0  0  0  0  0
    2.8579   -4.9500    0.0000 C   0  0  0  0  0  0  0  0  0  0  0  0
    2.8579   -4.1250    0.0000 C   0  0  0  0  0  0  0  0  0  0  0  0
    3.5724   -6.1875    0.0000 S   0  0  0  0  0  0  0  0  0  0  0  0
    3.5724   -7.0125    0.0000 N   0  0  0  0  0  0  0  0  0  0  0  0
    4.3974   -6.1875    0.0000 O   0  0  0  0  0  0  0  0  0  0  0  0
    2.7474   -6.1875    0.0000 C   0  0  0  0  0  0  0  0  0  0  0  0
    2.1434   -2.8875    0.0000 N   0  0  0  0  0  0  0  0  0  0  0  0
    1.4289   -2.4750    0.0000 C   0  0  0  0  0  0  0  0  0  0  0  0
    1.4289   -1.6500    0.0000 C   0  0  0  0  0  0  0  0  0  0  0  0
    0.7145   -1.2375    0.0000 Br  0  0  0  0  0  0  0  0  0  0  0  0
    2.8579    0.8250    0.0000 C   0  0  0  0  0  0  0  0  0  0  0  0
    2.8579    1.6500    0.0000 C   0  0  0  0  0  0  0  0  0  0  0  0
    3.6829    0.8250    0.0000 C   0  0  0  0  0  0  0  0  0  0  0  0
    2.0329    0.8250    0.0000 O   0  0  0  0  0  0  0  0  0  0  0  0
  2  1  1  1
  2  3  1  0
  3  4  1  0
  4  5  2  0
  5  6  1  0
  6  7  1  0
  7  8  1  0
  8  9  2  0
  9 10  1  0
 10 11  2  0
 11 12  1  0
 12 13  2  0
  8 13  1  0
 11 14  1  0
 14 15  1  0
 14 16  2  0
 14 17  2  0
  6 18  2  0
 18 19  1  0
 19 20  2  0
  4 20  1  0
 20 21  1  0
  2 22  1  0
 22 23  1  0
 22 24  1  0
 22 25  1  0
M  END
>  <pIC50>  (207) 
8.22

>  <chembl_id>  (207) 
CHEMBL3648072

>  <canonical_smiles>  (207) 
C[C@@H](Nc1nc(Nc2ccc(cc2)S(=N)(=O)C)ncc1Br)C(C)(C)O

$$$$
CHEMBL3648073
     RDKit          2D

 24 25  0  0  1  0  0  0  0  0999 V2000
    0.7145    1.2375    0.0000 C   0  0  0  0  0  0  0  0  0  0  0  0
    1.4289    0.8250    0.0000 C   0  0  0  0  0  0  0  0  0  0  0  0
    2.1434    1.2375    0.0000 O   0  0  0  0  0  0  0  0  0  0  0  0
    1.4289    0.0000    0.0000 C   0  0  0  0  0  0  0  0  0  0  0  0
    0.7145   -0.4125    0.0000 C   0  0  0  0  0  0  0  0  0  0  0  0
    2.1434   -0.4125    0.0000 O   0  0  0  0  0  0  0  0  0  0  0  0
    2.1434   -1.2375    0.0000 C   0  0  0  0  0  0  0  0  0  0  0  0
    2.8579   -1.6500    0.0000 N   0  0  0  0  0  0  0  0  0  0  0  0
    2.8579   -2.4750    0.0000 C   0  0  0  0  0  0  0  0  0  0  0  0
    3.5724   -2.8875    0.0000 N   0  0  0  0  0  0  0  0  0  0  0  0
    3.5724   -3.7125    0.0000 C   0  0  0  0  0  0  0  0  0  0  0  0
    4.2868   -4.1250    0.0000 C   0  0  0  0  0  0  0  0  0  0  0  0
    4.2868   -4.9500    0.0000 C   0  0  0  0  0  0  0  0  0  0  0  0
    3.5724   -5.3625    0.0000 C   0  0  0  0  0  0  0  0  0  0  0  0
    2.8579   -4.9500    0.0000 C   0  0  0  0  0  0  0  0  0  0  0  0
    2.8579   -4.1250    0.0000 C   0  0  0  0  0  0  0  0  0  0  0  0
    3.5724   -6.1875    0.0000 S   0  0  0  0  0  0  0  0  0  0  0  0
    3.5724   -7.0125    0.0000 N   0  0  0  0  0  0  0  0  0  0  0  0
    2.7474   -6.1875    0.0000 O   0  0  0  0  0  0  0  0  0  0  0  0
    4.3974   -6.1875    0.0000 C   0  0  0  0  0  0  0  0  0  0  0  0
    2.1434   -2.8875    0.0000 N   0  0  0  0  0  0  0  0  0  0  0  0
    1.4289   -2.4750    0.0000 C   0  0  0  0  0  0  0  0  0  0  0  0
    1.4289   -1.6500    0.0000 C   0  0  0  0  0  0  0  0  0  0  0  0
    0.7145   -1.2375    0.0000 Br  0  0  0  0  0  0  0  0  0  0  0  0
  2  1  1  6
  2  3  1  0
  2  4  1  0
  4  5  1  6
  4  6  1  0
  6  7  1  0
  7  8  2  0
  8  9  1  0
  9 10  1  0
 10 11  1  0
 11 12  2  0
 12 13  1  0
 13 14  2  0
 14 15  1  0
 15 16  2  0
 11 16  1  0
 14 17  1  0
 17 18  1  0
 17 19  2  0
 17 20  2  0
  9 21  2  0
 21 22  1  0
 22 23  2  0
  7 23  1  0
 23 24  1  0
M  END
>  <pIC50>  (208) 
8.00

>  <chembl_id>  (208) 
CHEMBL3648073

>  <canonical_smiles>  (208) 
C[C@H](O)[C@@H](C)Oc1nc(Nc2ccc(cc2)S(=N)(=O)C)ncc1Br

$$$$
CHEMBL3648074
     RDKit          2D

 27 29  0  0  1  0  0  0  0  0999 V2000
    0.7145   10.4401    0.0000 C   0  0  0  0  0  0  0  0  0  0  0  0
    0.0000   10.8526    0.0000 C   0  0  0  0  0  0  0  0  0  0  0  0
   -0.7145   10.4401    0.0000 N   0  0  0  0  0  0  0  0  0  0  0  0
   -0.7145    9.6151    0.0000 C   0  0  0  0  0  0  0  0  0  0  0  0
    0.0000    9.2026    0.0000 N   0  0  0  0  0  0  0  0  0  0  0  0
    0.0000    8.3776    0.0000 C   0  0  0  0  0  0  0  0  0  0  0  0
    0.7145    7.9651    0.0000 N   0  0  0  0  0  0  0  0  0  0  0  0
    0.7145    7.1401    0.0000 C   0  0  0  0  0  0  0  0  0  0  0  0
    1.4289    6.7276    0.0000 C   0  0  0  0  0  0  0  0  0  0  0  0
    1.4289    5.9026    0.0000 C   0  0  0  0  0  0  0  0  0  0  0  0
    0.7145    5.4901    0.0000 C   0  0  0  0  0  0  0  0  0  0  0  0
    0.0000    5.9026    0.0000 C   0  0  0  0  0  0  0  0  0  0  0  0
    0.0000    6.7276    0.0000 C   0  0  0  0  0  0  0  0  0  0  0  0
    0.7145    4.6651    0.0000 S   0  0  0  0  0  0  0  0  0  0  0  0
    1.5395    4.6651    0.0000 N   0  0  0  0  0  0  0  0  0  0  0  0
   -0.1105    4.6651    0.0000 O   0  0  0  0  0  0  0  0  0  0  0  0
    0.7145    3.8401    0.0000 C   0  0  0  0  0  0  0  0  0  0  0  0
    1.1270    3.1257    0.0000 C   0  0  0  0  0  0  0  0  0  0  0  0
    0.3020    3.1257    0.0000 C   0  0  0  0  0  0  0  0  0  0  0  0
   -0.7145    7.9651    0.0000 N   0  0  0  0  0  0  0  0  0  0  0  0
   -1.4289    8.3776    0.0000 C   0  0  0  0  0  0  0  0  0  0  0  0
   -1.4289    9.2026    0.0000 C   0  0  0  0  0  0  0  0  0  0  0  0
   -2.1434    9.6151    0.0000 Br  0  0  0  0  0  0  0  0  0  0  0  0
    0.0000   11.6776    0.0000 C   0  0  0  0  0  0  0  0  0  0  0  0
    0.0000   12.5026    0.0000 C   0  0  0  0  0  0  0  0  0  0  0  0
    0.8250   11.6776    0.0000 C   0  0  0  0  0  0  0  0  0  0  0  0
   -0.8250   11.6776    0.0000 O   0  0  0  0  0  0  0  0  0  0  0  0
  2  1  1  1
  2  3  1  0
  3  4  1  0
  4  5  2  0
  5  6  1  0
  6  7  1  0
  7  8  1  0
  8  9  2  0
  9 10  1  0
 10 11  2  0
 11 12  1  0
 12 13  2  0
  8 13  1  0
 11 14  1  0
 14 15  2  0
 14 16  2  0
 14 17  1  0
 17 18  1  0
 18 19  1  0
 17 19  1  0
  6 20  2  0
 20 21  1  0
 21 22  2  0
  4 22  1  0
 22 23  1  0
  2 24  1  0
 24 25  1  0
 24 26  1  0
 24 27  1  0
M  END
>  <pIC50>  (209) 
8.10

>  <chembl_id>  (209) 
CHEMBL3648074

>  <canonical_smiles>  (209) 
C[C@@H](Nc1nc(Nc2ccc(cc2)S(=N)(=O)C3CC3)ncc1Br)C(C)(C)O

$$$$
CHEMBL3648076
     RDKit          2D

 28 30  0  0  1  0  0  0  0  0999 V2000
   -3.8743    8.1395    0.0000 C   0  0  0  0  0  0  0  0  0  0  0  0
   -4.5888    7.7270    0.0000 C   0  0  0  0  0  0  0  0  0  0  0  0
   -4.5888    6.9020    0.0000 N   0  0  0  0  0  0  0  0  0  0  0  0
   -3.8743    6.4895    0.0000 C   0  0  0  0  0  0  0  0  0  0  0  0
   -3.1599    6.9020    0.0000 N   0  0  0  0  0  0  0  0  0  0  0  0
   -2.4454    6.4895    0.0000 C   0  0  0  0  0  0  0  0  0  0  0  0
   -1.7309    6.9020    0.0000 N   0  0  0  0  0  0  0  0  0  0  0  0
   -1.0164    6.4895    0.0000 C   0  0  0  0  0  0  0  0  0  0  0  0
   -0.3020    6.9020    0.0000 C   0  0  0  0  0  0  0  0  0  0  0  0
    0.4125    6.4895    0.0000 C   0  0  0  0  0  0  0  0  0  0  0  0
    0.4125    5.6645    0.0000 C   0  0  0  0  0  0  0  0  0  0  0  0
   -0.3020    5.2520    0.0000 C   0  0  0  0  0  0  0  0  0  0  0  0
   -1.0164    5.6645    0.0000 C   0  0  0  0  0  0  0  0  0  0  0  0
    1.1270    5.2520    0.0000 S   0  0  0  0  0  0  0  0  0  0  0  0
    1.5395    5.9664    0.0000 N   0  0  0  0  0  0  0  0  0  0  0  0
    0.7145    4.5375    0.0000 O   0  0  0  0  0  0  0  0  0  0  0  0
    1.8414    4.8395    0.0000 C   0  0  0  0  0  0  0  0  0  0  0  0
    1.8414    4.0145    0.0000 C   0  0  0  0  0  0  0  0  0  0  0  0
    2.2539    3.3000    0.0000 C   0  0  0  0  0  0  0  0  0  0  0  0
    1.4289    3.3000    0.0000 C   0  0  0  0  0  0  0  0  0  0  0  0
   -2.4454    5.6645    0.0000 N   0  0  0  0  0  0  0  0  0  0  0  0
   -3.1599    5.2520    0.0000 C   0  0  0  0  0  0  0  0  0  0  0  0
   -3.8743    5.6645    0.0000 C   0  0  0  0  0  0  0  0  0  0  0  0
   -4.5888    5.2520    0.0000 Br  0  0  0  0  0  0  0  0  0  0  0  0
   -5.3033    8.1395    0.0000 C   0  0  0  0  0  0  0  0  0  0  0  0
   -6.0177    8.5520    0.0000 C   0  0  0  0  0  0  0  0  0  0  0  0
   -4.8908    8.8539    0.0000 C   0  0  0  0  0  0  0  0  0  0  0  0
   -5.7158    7.4250    0.0000 O   0  0  0  0  0  0  0  0  0  0  0  0
  2  1  1  1
  2  3  1  0
  3  4  1  0
  4  5  2  0
  5  6  1  0
  6  7  1  0
  7  8  1  0
  8  9  2  0
  9 10  1  0
 10 11  2  0
 11 12  1  0
 12 13  2  0
  8 13  1  0
 11 14  1  0
 14 15  2  0
 14 16  2  0
 14 17  1  0
 17 18  1  0
 18 19  1  0
 19 20  1  0
 18 20  1  0
  6 21  2  0
 21 22  1  0
 22 23  2  0
  4 23  1  0
 23 24  1  0
  2 25  1  0
 25 26  1  0
 25 27  1  0
 25 28  1  0
M  END
>  <pIC50>  (210) 
8.40

>  <chembl_id>  (210) 
CHEMBL3648076

>  <canonical_smiles>  (210) 
C[C@@H](Nc1nc(Nc2ccc(cc2)S(=N)(=O)CC3CC3)ncc1Br)C(C)(C)O

$$$$
CHEMBL3648078
     RDKit          2D

 29 31  0  0  1  0  0  0  0  0999 V2000
    0.7145   10.8911    0.0000 C   0  0  0  0  0  0  0  0  0  0  0  0
    0.0000   11.3036    0.0000 C   0  0  0  0  0  0  0  0  0  0  0  0
   -0.7145   10.8911    0.0000 N   0  0  0  0  0  0  0  0  0  0  0  0
   -0.7145   10.0661    0.0000 C   0  0  0  0  0  0  0  0  0  0  0  0
    0.0000    9.6536    0.0000 N   0  0  0  0  0  0  0  0  0  0  0  0
    0.0000    8.8286    0.0000 C   0  0  0  0  0  0  0  0  0  0  0  0
    0.7145    8.4161    0.0000 N   0  0  0  0  0  0  0  0  0  0  0  0
    0.7145    7.5911    0.0000 C   0  0  0  0  0  0  0  0  0  0  0  0
    1.4289    7.1786    0.0000 C   0  0  0  0  0  0  0  0  0  0  0  0
    1.4289    6.3536    0.0000 C   0  0  0  0  0  0  0  0  0  0  0  0
    0.7145    5.9411    0.0000 C   0  0  0  0  0  0  0  0  0  0  0  0
    0.0000    6.3536    0.0000 C   0  0  0  0  0  0  0  0  0  0  0  0
    0.0000    7.1786    0.0000 C   0  0  0  0  0  0  0  0  0  0  0  0
    0.7145    5.1161    0.0000 S   0  0  0  0  0  0  0  0  0  0  0  0
    1.5395    5.1161    0.0000 N   0  0  0  0  0  0  0  0  0  0  0  0
   -0.1105    5.1161    0.0000 O   0  0  0  0  0  0  0  0  0  0  0  0
    0.7145    4.2911    0.0000 C   0  0  0  0  0  0  0  0  0  0  0  0
    1.3819    3.8062    0.0000 C   0  0  0  0  0  0  0  0  0  0  0  0
    1.1270    3.0215    0.0000 C   0  0  0  0  0  0  0  0  0  0  0  0
    0.3020    3.0215    0.0000 C   0  0  0  0  0  0  0  0  0  0  0  0
    0.0470    3.8062    0.0000 C   0  0  0  0  0  0  0  0  0  0  0  0
   -0.7145    8.4161    0.0000 N   0  0  0  0  0  0  0  0  0  0  0  0
   -1.4289    8.8286    0.0000 C   0  0  0  0  0  0  0  0  0  0  0  0
   -1.4289    9.6536    0.0000 C   0  0  0  0  0  0  0  0  0  0  0  0
   -2.1434   10.0661    0.0000 Br  0  0  0  0  0  0  0  0  0  0  0  0
    0.0000   12.1286    0.0000 C   0  0  0  0  0  0  0  0  0  0  0  0
    0.0000   12.9536    0.0000 C   0  0  0  0  0  0  0  0  0  0  0  0
    0.8250   12.1286    0.0000 C   0  0  0  0  0  0  0  0  0  0  0  0
   -0.8250   12.1286    0.0000 O   0  0  0  0  0  0  0  0  0  0  0  0
  2  1  1  1
  2  3  1  0
  3  4  1  0
  4  5  2  0
  5  6  1  0
  6  7  1  0
  7  8  1  0
  8  9  2  0
  9 10  1  0
 10 11  2  0
 11 12  1  0
 12 13  2  0
  8 13  1  0
 11 14  1  0
 14 15  2  0
 14 16  2  0
 14 17  1  0
 17 18  1  0
 18 19  1  0
 19 20  1  0
 20 21  1  0
 17 21  1  0
  6 22  2  0
 22 23  1  0
 23 24  2  0
  4 24  1  0
 24 25  1  0
  2 26  1  0
 26 27  1  0
 26 28  1  0
 26 29  1  0
M  END
>  <pIC50>  (211) 
7.60

>  <chembl_id>  (211) 
CHEMBL3648078

>  <canonical_smiles>  (211) 
C[C@@H](Nc1nc(Nc2ccc(cc2)S(=N)(=O)C3CCCC3)ncc1Br)C(C)(C)O

$$$$
CHEMBL3648079
     RDKit          2D

 36 37  0  0  1  0  0  0  0  0999 V2000
   -2.1434   -0.4125    0.0000 C   0  0  0  0  0  0  0  0  0  0  0  0
   -1.4289    0.0000    0.0000 C   0  0  0  0  0  0  0  0  0  0  0  0
   -0.7145   -0.4125    0.0000 N   0  0  0  0  0  0  0  0  0  0  0  0
   -0.7145   -1.2375    0.0000 C   0  0  0  0  0  0  0  0  0  0  0  0
   -1.4289   -1.6500    0.0000 N   0  0  0  0  0  0  0  0  0  0  0  0
   -1.4289   -2.4750    0.0000 C   0  0  0  0  0  0  0  0  0  0  0  0
   -2.1434   -2.8875    0.0000 N   0  0  0  0  0  0  0  0  0  0  0  0
   -2.1434   -3.7125    0.0000 C   0  0  0  0  0  0  0  0  0  0  0  0
   -1.4289   -4.1250    0.0000 C   0  0  0  0  0  0  0  0  0  0  0  0
   -1.4289   -4.9500    0.0000 C   0  0  0  0  0  0  0  0  0  0  0  0
   -2.1434   -5.3625    0.0000 C   0  0  0  0  0  0  0  0  0  0  0  0
   -2.8579   -4.9500    0.0000 C   0  0  0  0  0  0  0  0  0  0  0  0
   -2.8579   -4.1250    0.0000 C   0  0  0  0  0  0  0  0  0  0  0  0
   -2.1434   -6.1875    0.0000 S   0  0  0  0  0  0  0  0  0  0  0  0
   -2.9684   -6.1875    0.0000 O   0  0  0  0  0  0  0  0  0  0  0  0
   -2.1434   -7.0125    0.0000 N   0  0  0  0  0  0  0  0  0  0  0  0
   -2.8579   -7.4250    0.0000 S   0  0  0  0  0  0  0  0  0  0  0  0
   -2.4454   -8.1395    0.0000 O   0  0  0  0  0  0  0  0  0  0  0  0
   -3.2704   -6.7105    0.0000 O   0  0  0  0  0  0  0  0  0  0  0  0
   -3.5724   -7.8375    0.0000 C   0  0  0  0  0  0  0  0  0  0  0  0
   -3.5724   -8.6625    0.0000 C   0  0  0  0  0  0  0  0  0  0  0  0
   -4.2868   -9.0750    0.0000 Si  0  0  0  0  0  4  0  0  0  0  0  0
   -5.0013   -9.4875    0.0000 C   0  0  0  0  0  0  0  0  0  0  0  0
   -3.8743   -9.7895    0.0000 C   0  0  0  0  0  0  0  0  0  0  0  0
   -4.6993   -8.3605    0.0000 C   0  0  0  0  0  0  0  0  0  0  0  0
   -1.3184   -6.1875    0.0000 C   0  0  0  0  0  0  0  0  0  0  0  0
   -0.9059   -6.9020    0.0000 C   0  0  0  0  0  0  0  0  0  0  0  0
   -0.0809   -6.9020    0.0000 O   0  0  0  0  0  0  0  0  0  0  0  0
   -0.7145   -2.8875    0.0000 N   0  0  0  0  0  0  0  0  0  0  0  0
    0.0000   -2.4750    0.0000 C   0  0  0  0  0  0  0  0  0  0  0  0
    0.0000   -1.6500    0.0000 C   0  0  0  0  0  0  0  0  0  0  0  0
    0.7145   -1.2375    0.0000 Br  0  0  0  0  0  0  0  0  0  0  0  0
   -1.4289    0.8250    0.0000 C   0  0  0  0  0  0  0  0  0  0  0  0
   -1.4289    1.6500    0.0000 C   0  0  0  0  0  0  0  0  0  0  0  0
   -2.2539    0.8250    0.0000 C   0  0  0  0  0  0  0  0  0  0  0  0
   -0.6039    0.8250    0.0000 O   0  0  0  0  0  0  0  0  0  0  0  0
  2  1  1  6
  2  3  1  0
  3  4  1  0
  4  5  2  0
  5  6  1  0
  6  7  1  0
  7  8  1  0
  8  9  2  0
  9 10  1  0
 10 11  2  0
 11 12  1  0
 12 13  2  0
  8 13  1  0
 11 14  1  0
 14 15  2  0
 14 16  1  0
 16 17  1  0
 17 18  2  0
 17 19  2  0
 17 20  1  0
 20 21  1  0
 21 22  1  0
 22 23  1  0
 22 24  1  0
 22 25  1  0
 14 26  2  0
 26 27  1  0
 27 28  2  0
  6 29  2  0
 29 30  1  0
 30 31  2  0
  4 31  1  0
 31 32  1  0
  2 33  1  0
 33 34  1  0
 33 35  1  0
 33 36  1  0
M  END
>  <pIC50>  (212) 
7.31

>  <chembl_id>  (212) 
CHEMBL3648079

>  <canonical_smiles>  (212) 
C[C@@H](Nc1nc(Nc2ccc(cc2)S(=O)(=NS(=O)(=O)CC[Si](C)(C)C)CC=O)ncc1Br)C(C)(C)O

$$$$
CHEMBL3648080
     RDKit          2D

 35 36  0  0  1  0  0  0  0  0999 V2000
    0.7145    1.2375    0.0000 C   0  0  0  0  0  0  0  0  0  0  0  0
    1.4289    0.8250    0.0000 C   0  0  0  0  0  0  0  0  0  0  0  0
    2.1434    1.2375    0.0000 O   0  0  0  0  0  0  0  0  0  0  0  0
    1.4289    0.0000    0.0000 C   0  0  0  0  0  0  0  0  0  0  0  0
    0.7145   -0.4125    0.0000 C   0  0  0  0  0  0  0  0  0  0  0  0
    2.1434   -0.4125    0.0000 N   0  0  0  0  0  0  0  0  0  0  0  0
    2.1434   -1.2375    0.0000 C   0  0  0  0  0  0  0  0  0  0  0  0
    2.8579   -1.6500    0.0000 N   0  0  0  0  0  0  0  0  0  0  0  0
    2.8579   -2.4750    0.0000 C   0  0  0  0  0  0  0  0  0  0  0  0
    3.5724   -2.8875    0.0000 N   0  0  0  0  0  0  0  0  0  0  0  0
    3.5724   -3.7125    0.0000 C   0  0  0  0  0  0  0  0  0  0  0  0
    4.2868   -4.1250    0.0000 C   0  0  0  0  0  0  0  0  0  0  0  0
    4.2868   -4.9500    0.0000 C   0  0  0  0  0  0  0  0  0  0  0  0
    3.5724   -5.3625    0.0000 C   0  0  0  0  0  0  0  0  0  0  0  0
    2.8579   -4.9500    0.0000 C   0  0  0  0  0  0  0  0  0  0  0  0
    2.8579   -4.1250    0.0000 C   0  0  0  0  0  0  0  0  0  0  0  0
    3.5724   -6.1875    0.0000 S   0  0  0  0  0  0  0  0  0  0  0  0
    3.5724   -7.0125    0.0000 O   0  0  0  0  0  0  0  0  0  0  0  0
    4.3974   -6.1875    0.0000 N   0  0  0  0  0  0  0  0  0  0  0  0
    4.8099   -6.9020    0.0000 S   0  0  0  0  0  0  0  0  0  0  0  0
    5.5243   -6.4895    0.0000 O   0  0  0  0  0  0  0  0  0  0  0  0
    5.2224   -7.6164    0.0000 O   0  0  0  0  0  0  0  0  0  0  0  0
    4.0954   -7.3145    0.0000 C   0  0  0  0  0  0  0  0  0  0  0  0
    4.0954   -8.1395    0.0000 C   0  0  0  0  0  0  0  0  0  0  0  0
    3.3809   -8.5520    0.0000 Si  0  0  0  0  0  4  0  0  0  0  0  0
    2.6664   -8.9645    0.0000 C   0  0  0  0  0  0  0  0  0  0  0  0
    2.9684   -7.8375    0.0000 C   0  0  0  0  0  0  0  0  0  0  0  0
    3.7934   -9.2664    0.0000 C   0  0  0  0  0  0  0  0  0  0  0  0
    2.7474   -6.1875    0.0000 C   0  0  0  0  0  0  0  0  0  0  0  0
    2.3349   -6.9020    0.0000 C   0  0  0  0  0  0  0  0  0  0  0  0
    1.5099   -6.9020    0.0000 O   0  0  0  0  0  0  0  0  0  0  0  0
    2.1434   -2.8875    0.0000 N   0  0  0  0  0  0  0  0  0  0  0  0
    1.4289   -2.4750    0.0000 C   0  0  0  0  0  0  0  0  0  0  0  0
    1.4289   -1.6500    0.0000 C   0  0  0  0  0  0  0  0  0  0  0  0
    0.7145   -1.2375    0.0000 Br  0  0  0  0  0  0  0  0  0  0  0  0
  2  1  1  6
  2  3  1  0
  2  4  1  0
  4  5  1  6
  4  6  1  0
  6  7  1  0
  7  8  2  0
  8  9  1  0
  9 10  1  0
 10 11  1  0
 11 12  2  0
 12 13  1  0
 13 14  2  0
 14 15  1  0
 15 16  2  0
 11 16  1  0
 14 17  1  0
 17 18  2  0
 17 19  1  0
 19 20  1  0
 20 21  2  0
 20 22  2  0
 20 23  1  0
 23 24  1  0
 24 25  1  0
 25 26  1  0
 25 27  1  0
 25 28  1  0
 17 29  2  0
 29 30  1  0
 30 31  2  0
  9 32  2  0
 32 33  1  0
 33 34  2  0
  7 34  1  0
 34 35  1  0
M  END
>  <pIC50>  (213) 
6.89

>  <chembl_id>  (213) 
CHEMBL3648080

>  <canonical_smiles>  (213) 
C[C@H](O)[C@@H](C)Nc1nc(Nc2ccc(cc2)S(=O)(=NS(=O)(=O)CC[Si](C)(C)C)CC=O)ncc1Br

$$$$
CHEMBL3648081
     RDKit          2D

 35 36  0  0  1  0  0  0  0  0999 V2000
    0.7145    1.2375    0.0000 C   0  0  0  0  0  0  0  0  0  0  0  0
    1.4289    0.8250    0.0000 C   0  0  0  0  0  0  0  0  0  0  0  0
    2.1434    1.2375    0.0000 O   0  0  0  0  0  0  0  0  0  0  0  0
    1.4289    0.0000    0.0000 C   0  0  0  0  0  0  0  0  0  0  0  0
    0.7145   -0.4125    0.0000 C   0  0  0  0  0  0  0  0  0  0  0  0
    2.1434   -0.4125    0.0000 O   0  0  0  0  0  0  0  0  0  0  0  0
    2.1434   -1.2375    0.0000 C   0  0  0  0  0  0  0  0  0  0  0  0
    2.8579   -1.6500    0.0000 N   0  0  0  0  0  0  0  0  0  0  0  0
    2.8579   -2.4750    0.0000 C   0  0  0  0  0  0  0  0  0  0  0  0
    3.5724   -2.8875    0.0000 N   0  0  0  0  0  0  0  0  0  0  0  0
    3.5724   -3.7125    0.0000 C   0  0  0  0  0  0  0  0  0  0  0  0
    4.2868   -4.1250    0.0000 C   0  0  0  0  0  0  0  0  0  0  0  0
    4.2868   -4.9500    0.0000 C   0  0  0  0  0  0  0  0  0  0  0  0
    3.5724   -5.3625    0.0000 C   0  0  0  0  0  0  0  0  0  0  0  0
    2.8579   -4.9500    0.0000 C   0  0  0  0  0  0  0  0  0  0  0  0
    2.8579   -4.1250    0.0000 C   0  0  0  0  0  0  0  0  0  0  0  0
    3.5724   -6.1875    0.0000 S   0  0  0  0  0  0  0  0  0  0  0  0
    3.5724   -7.0125    0.0000 O   0  0  0  0  0  0  0  0  0  0  0  0
    4.3974   -6.1875    0.0000 N   0  0  0  0  0  0  0  0  0  0  0  0
    4.8099   -6.9020    0.0000 S   0  0  0  0  0  0  0  0  0  0  0  0
    5.5243   -6.4895    0.0000 O   0  0  0  0  0  0  0  0  0  0  0  0
    5.2224   -7.6164    0.0000 O   0  0  0  0  0  0  0  0  0  0  0  0
    4.0954   -7.3145    0.0000 C   0  0  0  0  0  0  0  0  0  0  0  0
    4.0954   -8.1395    0.0000 C   0  0  0  0  0  0  0  0  0  0  0  0
    3.3809   -8.5520    0.0000 Si  0  0  0  0  0  4  0  0  0  0  0  0
    2.6664   -8.9645    0.0000 C   0  0  0  0  0  0  0  0  0  0  0  0
    2.9684   -7.8375    0.0000 C   0  0  0  0  0  0  0  0  0  0  0  0
    3.7934   -9.2664    0.0000 C   0  0  0  0  0  0  0  0  0  0  0  0
    2.7474   -6.1875    0.0000 C   0  0  0  0  0  0  0  0  0  0  0  0
    2.3349   -6.9020    0.0000 C   0  0  0  0  0  0  0  0  0  0  0  0
    1.5099   -6.9020    0.0000 O   0  0  0  0  0  0  0  0  0  0  0  0
    2.1434   -2.8875    0.0000 N   0  0  0  0  0  0  0  0  0  0  0  0
    1.4289   -2.4750    0.0000 C   0  0  0  0  0  0  0  0  0  0  0  0
    1.4289   -1.6500    0.0000 C   0  0  0  0  0  0  0  0  0  0  0  0
    0.7145   -1.2375    0.0000 Br  0  0  0  0  0  0  0  0  0  0  0  0
  2  1  1  6
  2  3  1  0
  2  4  1  0
  4  5  1  6
  4  6  1  0
  6  7  1  0
  7  8  2  0
  8  9  1  0
  9 10  1  0
 10 11  1  0
 11 12  2  0
 12 13  1  0
 13 14  2  0
 14 15  1  0
 15 16  2  0
 11 16  1  0
 14 17  1  0
 17 18  2  0
 17 19  2  0
 19 20  1  0
 20 21  2  0
 20 22  2  0
 20 23  1  0
 23 24  1  0
 24 25  1  0
 25 26  1  0
 25 27  1  0
 25 28  1  0
 17 29  1  0
 29 30  1  0
 30 31  1  0
  9 32  2  0
 32 33  1  0
 33 34  2  0
  7 34  1  0
 34 35  1  0
M  END
>  <pIC50>  (214) 
7.27

>  <chembl_id>  (214) 
CHEMBL3648081

>  <canonical_smiles>  (214) 
C[C@H](O)[C@@H](C)Oc1nc(Nc2ccc(cc2)S(=O)(=NS(=O)(=O)CC[Si](C)(C)C)CCO)ncc1Br

$$$$
CHEMBL3648082
     RDKit          2D

 26 27  0  0  1  0  0  0  0  0999 V2000
    2.8579    0.0000    0.0000 C   0  0  0  0  0  0  0  0  0  0  0  0
    2.1434   -0.4125    0.0000 O   0  0  0  0  0  0  0  0  0  0  0  0
    2.1434   -1.2375    0.0000 C   0  0  0  0  0  0  0  0  0  0  0  0
    2.8579   -1.6500    0.0000 C   0  0  0  0  0  0  0  0  0  0  0  0
    2.8579   -2.4750    0.0000 C   0  0  0  0  0  0  0  0  0  0  0  0
    3.5724   -2.8875    0.0000 N   0  0  0  0  0  0  0  0  0  0  0  0
    3.5724   -3.7125    0.0000 C   0  0  0  0  0  0  0  0  0  0  0  0
    4.2868   -4.1250    0.0000 N   0  0  0  0  0  0  0  0  0  0  0  0
    4.2868   -4.9500    0.0000 C   0  0  0  0  0  0  0  0  0  0  0  0
    3.5724   -5.3625    0.0000 C   0  0  0  0  0  0  0  0  0  0  0  0
    3.5724   -6.1875    0.0000 Br  0  0  0  0  0  0  0  0  0  0  0  0
    2.8579   -4.9500    0.0000 C   0  0  0  0  0  0  0  0  0  0  0  0
    2.1434   -5.3625    0.0000 O   0  0  0  0  0  0  0  0  0  0  0  0
    2.1434   -6.1875    0.0000 C   0  0  0  0  0  0  0  0  0  0  0  0
    2.8579   -6.6000    0.0000 C   0  0  0  0  0  0  0  0  0  0  0  0
    1.4289   -6.6000    0.0000 C   0  0  0  0  0  0  0  0  0  0  0  0
    1.4289   -7.4250    0.0000 C   0  0  0  0  0  0  0  0  0  0  0  0
    0.7145   -6.1875    0.0000 O   0  0  0  0  0  0  0  0  0  0  0  0
    2.8579   -4.1250    0.0000 N   0  0  0  0  0  0  0  0  0  0  0  0
    2.1434   -2.8875    0.0000 C   0  0  0  0  0  0  0  0  0  0  0  0
    1.4289   -2.4750    0.0000 C   0  0  0  0  0  0  0  0  0  0  0  0
    1.4289   -1.6500    0.0000 C   0  0  0  0  0  0  0  0  0  0  0  0
    0.7145   -1.2375    0.0000 S   0  0  0  0  0  0  0  0  0  0  0  0
    0.0000   -0.8250    0.0000 N   0  0  0  0  0  0  0  0  0  0  0  0
    1.1270   -0.5230    0.0000 O   0  0  0  0  0  0  0  0  0  0  0  0
    0.3020   -1.9520    0.0000 C   0  0  0  0  0  0  0  0  0  0  0  0
  1  2  1  0
  2  3  1  0
  3  4  2  0
  4  5  1  0
  5  6  1  0
  6  7  1  0
  7  8  2  0
  8  9  1  0
  9 10  2  0
 10 11  1  0
 10 12  1  0
 12 13  1  0
 14 13  1  0
 14 15  1  6
 14 16  1  0
 16 17  1  6
 16 18  1  0
 12 19  2  0
  7 19  1  0
  5 20  2  0
 20 21  1  0
 21 22  2  0
  3 22  1  0
 22 23  1  0
 23 24  1  0
 23 25  2  0
 23 26  2  0
M  END
>  <pIC50>  (215) 
8.10

>  <chembl_id>  (215) 
CHEMBL3648082

>  <canonical_smiles>  (215) 
COc1cc(Nc2ncc(Br)c(O[C@H](C)[C@H](C)O)n2)ccc1S(=N)(=O)C

$$$$
CHEMBL3648083
     RDKit          2D

 25 26  0  0  1  0  0  0  0  0999 V2000
    0.5230    0.3020    0.0000 C   0  0  0  0  0  0  0  0  0  0  0  0
    0.1105   -0.4125    0.0000 N   0  0  0  0  0  0  0  0  0  0  0  0
   -0.7145   -0.4125    0.0000 S   0  0  0  0  0  0  0  0  0  0  0  0
   -1.5395   -0.4125    0.0000 O   0  0  0  0  0  0  0  0  0  0  0  0
   -0.7145    0.4125    0.0000 C   0  0  0  0  0  0  0  0  0  0  0  0
   -0.7145   -1.2375    0.0000 C   0  0  0  0  0  0  0  0  0  0  0  0
    0.0000   -1.6500    0.0000 C   0  0  0  0  0  0  0  0  0  0  0  0
    0.0000   -2.4750    0.0000 C   0  0  0  0  0  0  0  0  0  0  0  0
   -0.7145   -2.8875    0.0000 C   0  0  0  0  0  0  0  0  0  0  0  0
   -0.7145   -3.7125    0.0000 N   0  0  0  0  0  0  0  0  0  0  0  0
    0.0000   -4.1250    0.0000 C   0  0  0  0  0  0  0  0  0  0  0  0
    0.7145   -3.7125    0.0000 N   0  0  0  0  0  0  0  0  0  0  0  0
    1.4289   -4.1250    0.0000 C   0  0  0  0  0  0  0  0  0  0  0  0
    1.4289   -4.9500    0.0000 C   0  0  0  0  0  0  0  0  0  0  0  0
    2.1434   -5.3625    0.0000 Br  0  0  0  0  0  0  0  0  0  0  0  0
    0.7145   -5.3625    0.0000 C   0  0  0  0  0  0  0  0  0  0  0  0
    0.7145   -6.1875    0.0000 N   0  0  0  0  0  0  0  0  0  0  0  0
    1.4289   -6.6000    0.0000 C   0  0  0  0  0  0  0  0  0  0  0  0
    2.1434   -6.1875    0.0000 C   0  0  0  0  0  0  0  0  0  0  0  0
    1.4289   -7.4250    0.0000 C   0  0  0  0  0  0  0  0  0  0  0  0
    2.1434   -7.8375    0.0000 C   0  0  0  0  0  0  0  0  0  0  0  0
    0.7145   -7.8375    0.0000 O   0  0  0  0  0  0  0  0  0  0  0  0
    0.0000   -4.9500    0.0000 N   0  0  0  0  0  0  0  0  0  0  0  0
   -1.4289   -2.4750    0.0000 C   0  0  0  0  0  0  0  0  0  0  0  0
   -1.4289   -1.6500    0.0000 C   0  0  0  0  0  0  0  0  0  0  0  0
  1  2  2  0
  2  3  1  0
  3  4  2  0
  3  5  1  0
  3  6  1  0
  6  7  2  0
  7  8  1  0
  8  9  2  0
  9 10  1  0
 10 11  1  0
 11 12  2  0
 12 13  1  0
 13 14  2  0
 14 15  1  0
 14 16  1  0
 16 17  1  0
 18 17  1  0
 18 19  1  6
 18 20  1  0
 20 21  1  6
 20 22  1  0
 16 23  2  0
 11 23  1  0
  9 24  1  0
 24 25  2  0
  6 25  1  0
M  END
>  <pIC50>  (216) 
8.15

>  <chembl_id>  (216) 
CHEMBL3648083

>  <canonical_smiles>  (216) 
CN=S(=O)(C)c1ccc(Nc2ncc(Br)c(N[C@H](C)[C@H](C)O)n2)cc1

$$$$
CHEMBL3648084
     RDKit          2D

 30 31  0  0  1  0  0  0  0  0999 V2000
    2.5855    1.0164    0.0000 C   0  0  0  0  0  0  0  0  0  0  0  0
    1.7605    1.0164    0.0000 C   0  0  0  0  0  0  0  0  0  0  0  0
    1.3480    0.3020    0.0000 O   0  0  0  0  0  0  0  0  0  0  0  0
    0.5230    0.3020    0.0000 C   0  0  0  0  0  0  0  0  0  0  0  0
    0.1105    1.0164    0.0000 O   0  0  0  0  0  0  0  0  0  0  0  0
    0.1105   -0.4125    0.0000 N   0  0  0  0  0  0  0  0  0  0  0  0
   -0.7145   -0.4125    0.0000 S   0  0  0  0  0  0  0  0  0  0  0  0
   -1.5395   -0.4125    0.0000 O   0  0  0  0  0  0  0  0  0  0  0  0
   -0.7145    0.4125    0.0000 C   0  0  0  0  0  0  0  0  0  0  0  0
   -0.7145   -1.2375    0.0000 C   0  0  0  0  0  0  0  0  0  0  0  0
    0.0000   -1.6500    0.0000 C   0  0  0  0  0  0  0  0  0  0  0  0
    0.0000   -2.4750    0.0000 C   0  0  0  0  0  0  0  0  0  0  0  0
   -0.7145   -2.8875    0.0000 C   0  0  0  0  0  0  0  0  0  0  0  0
   -0.7145   -3.7125    0.0000 N   0  0  0  0  0  0  0  0  0  0  0  0
    0.0000   -4.1250    0.0000 C   0  0  0  0  0  0  0  0  0  0  0  0
    0.7145   -3.7125    0.0000 N   0  0  0  0  0  0  0  0  0  0  0  0
    1.4289   -4.1250    0.0000 C   0  0  0  0  0  0  0  0  0  0  0  0
    1.4289   -4.9500    0.0000 C   0  0  0  0  0  0  0  0  0  0  0  0
    2.1434   -5.3625    0.0000 Br  0  0  0  0  0  0  0  0  0  0  0  0
    0.7145   -5.3625    0.0000 C   0  0  0  0  0  0  0  0  0  0  0  0
    0.7145   -6.1875    0.0000 N   0  0  0  0  0  0  0  0  0  0  0  0
    0.0000   -6.6000    0.0000 C   0  0  0  0  0  0  0  0  0  0  0  0
   -0.7145   -6.1875    0.0000 C   0  0  0  0  0  0  0  0  0  0  0  0
    0.0000   -7.4250    0.0000 C   0  0  0  0  0  0  0  0  0  0  0  0
    0.0000   -8.2500    0.0000 C   0  0  0  0  0  0  0  0  0  0  0  0
   -0.8250   -7.4250    0.0000 C   0  0  0  0  0  0  0  0  0  0  0  0
    0.8250   -7.4250    0.0000 O   0  0  0  0  0  0  0  0  0  0  0  0
    0.0000   -4.9500    0.0000 N   0  0  0  0  0  0  0  0  0  0  0  0
   -1.4289   -2.4750    0.0000 C   0  0  0  0  0  0  0  0  0  0  0  0
   -1.4289   -1.6500    0.0000 C   0  0  0  0  0  0  0  0  0  0  0  0
  1  2  1  0
  2  3  1  0
  3  4  1  0
  4  5  2  0
  4  6  1  0
  6  7  1  0
  7  8  2  0
  7  9  2  0
  7 10  1  0
 10 11  2  0
 11 12  1  0
 12 13  2  0
 13 14  1  0
 14 15  1  0
 15 16  2  0
 16 17  1  0
 17 18  2  0
 18 19  1  0
 18 20  1  0
 20 21  1  0
 22 21  1  0
 22 23  1  1
 22 24  1  0
 24 25  1  0
 24 26  1  0
 24 27  1  0
 20 28  2  0
 15 28  1  0
 13 29  1  0
 29 30  2  0
 10 30  1  0
M  END
>  <pIC50>  (217) 
8.05

>  <chembl_id>  (217) 
CHEMBL3648084

>  <canonical_smiles>  (217) 
CCOC(=O)N=S(=O)(C)c1ccc(Nc2ncc(Br)c(N[C@H](C)C(C)(C)O)n2)cc1

$$$$
CHEMBL3648085
     RDKit          2D

 29 30  0  0  1  0  0  0  0  0999 V2000
    2.5855    1.0164    0.0000 C   0  0  0  0  0  0  0  0  0  0  0  0
    1.7605    1.0164    0.0000 C   0  0  0  0  0  0  0  0  0  0  0  0
    1.3480    0.3020    0.0000 O   0  0  0  0  0  0  0  0  0  0  0  0
    0.5230    0.3020    0.0000 C   0  0  0  0  0  0  0  0  0  0  0  0
    0.1105    1.0164    0.0000 O   0  0  0  0  0  0  0  0  0  0  0  0
    0.1105   -0.4125    0.0000 N   0  0  0  0  0  0  0  0  0  0  0  0
   -0.7145   -0.4125    0.0000 S   0  0  0  0  0  0  0  0  0  0  0  0
   -1.5395   -0.4125    0.0000 O   0  0  0  0  0  0  0  0  0  0  0  0
   -0.7145    0.4125    0.0000 C   0  0  0  0  0  0  0  0  0  0  0  0
   -0.7145   -1.2375    0.0000 C   0  0  0  0  0  0  0  0  0  0  0  0
    0.0000   -1.6500    0.0000 C   0  0  0  0  0  0  0  0  0  0  0  0
    0.0000   -2.4750    0.0000 C   0  0  0  0  0  0  0  0  0  0  0  0
   -0.7145   -2.8875    0.0000 C   0  0  0  0  0  0  0  0  0  0  0  0
   -0.7145   -3.7125    0.0000 N   0  0  0  0  0  0  0  0  0  0  0  0
    0.0000   -4.1250    0.0000 C   0  0  0  0  0  0  0  0  0  0  0  0
    0.7145   -3.7125    0.0000 N   0  0  0  0  0  0  0  0  0  0  0  0
    1.4289   -4.1250    0.0000 C   0  0  0  0  0  0  0  0  0  0  0  0
    1.4289   -4.9500    0.0000 C   0  0  0  0  0  0  0  0  0  0  0  0
    2.1434   -5.3625    0.0000 Br  0  0  0  0  0  0  0  0  0  0  0  0
    0.7145   -5.3625    0.0000 C   0  0  0  0  0  0  0  0  0  0  0  0
    0.7145   -6.1875    0.0000 N   0  0  0  0  0  0  0  0  0  0  0  0
    1.4289   -6.6000    0.0000 C   0  0  0  0  0  0  0  0  0  0  0  0
    2.1434   -6.1875    0.0000 C   0  0  0  0  0  0  0  0  0  0  0  0
    1.4289   -7.4250    0.0000 C   0  0  0  0  0  0  0  0  0  0  0  0
    2.1434   -7.8375    0.0000 C   0  0  0  0  0  0  0  0  0  0  0  0
    0.7145   -7.8375    0.0000 O   0  0  0  0  0  0  0  0  0  0  0  0
    0.0000   -4.9500    0.0000 N   0  0  0  0  0  0  0  0  0  0  0  0
   -1.4289   -2.4750    0.0000 C   0  0  0  0  0  0  0  0  0  0  0  0
   -1.4289   -1.6500    0.0000 C   0  0  0  0  0  0  0  0  0  0  0  0
  1  2  1  0
  2  3  1  0
  3  4  1  0
  4  5  2  0
  4  6  1  0
  6  7  1  0
  7  8  2  0
  7  9  2  0
  7 10  1  0
 10 11  2  0
 11 12  1  0
 12 13  2  0
 13 14  1  0
 14 15  1  0
 15 16  2  0
 16 17  1  0
 17 18  2  0
 18 19  1  0
 18 20  1  0
 20 21  1  0
 22 21  1  0
 22 23  1  6
 22 24  1  0
 24 25  1  6
 24 26  1  0
 20 27  2  0
 15 27  1  0
 13 28  1  0
 28 29  2  0
 10 29  1  0
M  END
>  <pIC50>  (218) 
7.92

>  <chembl_id>  (218) 
CHEMBL3648085

>  <canonical_smiles>  (218) 
CCOC(=O)N=S(=O)(C)c1ccc(Nc2ncc(Br)c(N[C@H](C)[C@H](C)O)n2)cc1

$$$$
CHEMBL3648086
     RDKit          2D

 32 33  0  0  1  0  0  0  0  0999 V2000
    9.5901   -5.2224    0.0000 C   0  0  0  0  0  0  0  0  0  0  0  0
   10.0026   -4.5079    0.0000 C   0  0  0  0  0  0  0  0  0  0  0  0
    9.5901   -3.7934    0.0000 O   0  0  0  0  0  0  0  0  0  0  0  0
   10.0026   -3.0789    0.0000 C   0  0  0  0  0  0  0  0  0  0  0  0
   10.8276   -3.0789    0.0000 O   0  0  0  0  0  0  0  0  0  0  0  0
    9.5901   -2.3645    0.0000 N   0  0  0  0  0  0  0  0  0  0  0  0
   10.0026   -1.6500    0.0000 S   0  0  0  0  0  0  0  0  0  0  0  0
   10.4151   -0.9355    0.0000 O   0  0  0  0  0  0  0  0  0  0  0  0
   10.7171   -2.0625    0.0000 C   0  0  0  0  0  0  0  0  0  0  0  0
   11.4315   -1.6500    0.0000 C   0  0  0  0  0  0  0  0  0  0  0  0
    9.2881   -1.2375    0.0000 C   0  0  0  0  0  0  0  0  0  0  0  0
    8.5737   -1.6500    0.0000 C   0  0  0  0  0  0  0  0  0  0  0  0
    7.8592   -1.2375    0.0000 C   0  0  0  0  0  0  0  0  0  0  0  0
    7.8592   -0.4125    0.0000 C   0  0  0  0  0  0  0  0  0  0  0  0
    7.1447    0.0000    0.0000 N   0  0  0  0  0  0  0  0  0  0  0  0
    6.4302   -0.4125    0.0000 C   0  0  0  0  0  0  0  0  0  0  0  0
    6.4302   -1.2375    0.0000 N   0  0  0  0  0  0  0  0  0  0  0  0
    5.7158   -1.6500    0.0000 C   0  0  0  0  0  0  0  0  0  0  0  0
    5.0013   -1.2375    0.0000 C   0  0  0  0  0  0  0  0  0  0  0  0
    4.2868   -1.6500    0.0000 Br  0  0  0  0  0  0  0  0  0  0  0  0
    5.0013   -0.4125    0.0000 C   0  0  0  0  0  0  0  0  0  0  0  0
    4.2868    0.0000    0.0000 N   0  0  0  0  0  0  0  0  0  0  0  0
    4.2868    0.8250    0.0000 C   0  0  0  0  0  0  0  0  0  0  0  0
    3.5724    1.2375    0.0000 C   0  0  0  0  0  0  0  0  0  0  0  0
    3.5724    2.0625    0.0000 O   0  0  0  0  0  0  0  0  0  0  0  0
    2.8579    2.4750    0.0000 C   0  0  0  0  0  0  0  0  0  0  0  0
    5.0013    1.2375    0.0000 C   0  0  0  0  0  0  0  0  0  0  0  0
    5.0013    2.0625    0.0000 C   0  0  0  0  0  0  0  0  0  0  0  0
    5.7158    0.8250    0.0000 O   0  0  0  0  0  0  0  0  0  0  0  0
    5.7158    0.0000    0.0000 N   0  0  0  0  0  0  0  0  0  0  0  0
    8.5737    0.0000    0.0000 C   0  0  0  0  0  0  0  0  0  0  0  0
    9.2881   -0.4125    0.0000 C   0  0  0  0  0  0  0  0  0  0  0  0
  1  2  1  0
  2  3  1  0
  3  4  1  0
  4  5  2  0
  4  6  1  0
  6  7  2  0
  7  8  2  0
  7  9  1  0
  9 10  1  0
  7 11  1  0
 11 12  2  0
 12 13  1  0
 13 14  2  0
 14 15  1  0
 15 16  1  0
 16 17  2  0
 17 18  1  0
 18 19  2  0
 19 20  1  0
 19 21  1  0
 21 22  1  0
 23 22  1  0
 23 24  1  1
 24 25  1  0
 25 26  1  0
 23 27  1  0
 27 28  1  6
 27 29  1  0
 21 30  2  0
 16 30  1  0
 14 31  1  0
 31 32  2  0
 11 32  1  0
M  END
>  <pIC50>  (219) 
7.29

>  <chembl_id>  (219) 
CHEMBL3648086

>  <canonical_smiles>  (219) 
CCOC(=O)N=S(=O)(CC)c1ccc(Nc2ncc(Br)c(N[C@@H](COC)[C@H](C)O)n2)cc1

$$$$
CHEMBL3648087
     RDKit          2D

 31 32  0  0  1  0  0  0  0  0999 V2000
    9.5901   -5.2224    0.0000 C   0  0  0  0  0  0  0  0  0  0  0  0
   10.0026   -4.5079    0.0000 C   0  0  0  0  0  0  0  0  0  0  0  0
    9.5901   -3.7934    0.0000 O   0  0  0  0  0  0  0  0  0  0  0  0
   10.0026   -3.0789    0.0000 C   0  0  0  0  0  0  0  0  0  0  0  0
   10.8276   -3.0789    0.0000 O   0  0  0  0  0  0  0  0  0  0  0  0
    9.5901   -2.3645    0.0000 N   0  0  0  0  0  0  0  0  0  0  0  0
   10.0026   -1.6500    0.0000 S   0  0  0  0  0  0  0  0  0  0  0  0
   10.4151   -0.9355    0.0000 O   0  0  0  0  0  0  0  0  0  0  0  0
   10.7171   -2.0625    0.0000 C   0  0  0  0  0  0  0  0  0  0  0  0
    9.2881   -1.2375    0.0000 C   0  0  0  0  0  0  0  0  0  0  0  0
    8.5737   -1.6500    0.0000 C   0  0  0  0  0  0  0  0  0  0  0  0
    7.8592   -1.2375    0.0000 C   0  0  0  0  0  0  0  0  0  0  0  0
    7.8592   -0.4125    0.0000 C   0  0  0  0  0  0  0  0  0  0  0  0
    7.1447    0.0000    0.0000 N   0  0  0  0  0  0  0  0  0  0  0  0
    6.4302   -0.4125    0.0000 C   0  0  0  0  0  0  0  0  0  0  0  0
    6.4302   -1.2375    0.0000 N   0  0  0  0  0  0  0  0  0  0  0  0
    5.7158   -1.6500    0.0000 C   0  0  0  0  0  0  0  0  0  0  0  0
    5.0013   -1.2375    0.0000 C   0  0  0  0  0  0  0  0  0  0  0  0
    4.2868   -1.6500    0.0000 Br  0  0  0  0  0  0  0  0  0  0  0  0
    5.0013   -0.4125    0.0000 C   0  0  0  0  0  0  0  0  0  0  0  0
    4.2868    0.0000    0.0000 N   0  0  0  0  0  0  0  0  0  0  0  0
    4.2868    0.8250    0.0000 C   0  0  0  0  0  0  0  0  0  0  0  0
    3.5724    1.2375    0.0000 C   0  0  0  0  0  0  0  0  0  0  0  0
    3.5724    2.0625    0.0000 O   0  0  0  0  0  0  0  0  0  0  0  0
    2.8579    2.4750    0.0000 C   0  0  0  0  0  0  0  0  0  0  0  0
    5.0013    1.2375    0.0000 C   0  0  0  0  0  0  0  0  0  0  0  0
    5.0013    2.0625    0.0000 C   0  0  0  0  0  0  0  0  0  0  0  0
    5.7158    0.8250    0.0000 O   0  0  0  0  0  0  0  0  0  0  0  0
    5.7158    0.0000    0.0000 N   0  0  0  0  0  0  0  0  0  0  0  0
    8.5737    0.0000    0.0000 C   0  0  0  0  0  0  0  0  0  0  0  0
    9.2881   -0.4125    0.0000 C   0  0  0  0  0  0  0  0  0  0  0  0
  1  2  1  0
  2  3  1  0
  3  4  1  0
  4  5  2  0
  4  6  1  0
  6  7  1  0
  7  8  2  0
  7  9  2  0
  7 10  1  0
 10 11  2  0
 11 12  1  0
 12 13  2  0
 13 14  1  0
 14 15  1  0
 15 16  2  0
 16 17  1  0
 17 18  2  0
 18 19  1  0
 18 20  1  0
 20 21  1  0
 22 21  1  0
 22 23  1  1
 23 24  1  0
 24 25  1  0
 22 26  1  0
 26 27  1  6
 26 28  1  0
 20 29  2  0
 15 29  1  0
 13 30  1  0
 30 31  2  0
 10 31  1  0
M  END
>  <pIC50>  (220) 
7.55

>  <chembl_id>  (220) 
CHEMBL3648087

>  <canonical_smiles>  (220) 
CCOC(=O)N=S(=O)(C)c1ccc(Nc2ncc(Br)c(N[C@@H](COC)[C@H](C)O)n2)cc1

$$$$
CHEMBL3648088
     RDKit          2D

 31 32  0  0  1  0  0  0  0  0999 V2000
    2.5855    1.0164    0.0000 C   0  0  0  0  0  0  0  0  0  0  0  0
    1.7605    1.0164    0.0000 C   0  0  0  0  0  0  0  0  0  0  0  0
    1.3480    0.3020    0.0000 O   0  0  0  0  0  0  0  0  0  0  0  0
    0.5230    0.3020    0.0000 C   0  0  0  0  0  0  0  0  0  0  0  0
    0.1105    1.0164    0.0000 O   0  0  0  0  0  0  0  0  0  0  0  0
    0.1105   -0.4125    0.0000 N   0  0  0  0  0  0  0  0  0  0  0  0
   -0.7145   -0.4125    0.0000 S   0  0  0  0  0  0  0  0  0  0  0  0
   -1.5395   -0.4125    0.0000 O   0  0  0  0  0  0  0  0  0  0  0  0
   -0.7145    0.4125    0.0000 C   0  0  0  0  0  0  0  0  0  0  0  0
   -1.4289    0.8250    0.0000 C   0  0  0  0  0  0  0  0  0  0  0  0
   -0.7145   -1.2375    0.0000 C   0  0  0  0  0  0  0  0  0  0  0  0
    0.0000   -1.6500    0.0000 C   0  0  0  0  0  0  0  0  0  0  0  0
    0.0000   -2.4750    0.0000 C   0  0  0  0  0  0  0  0  0  0  0  0
   -0.7145   -2.8875    0.0000 C   0  0  0  0  0  0  0  0  0  0  0  0
   -0.7145   -3.7125    0.0000 N   0  0  0  0  0  0  0  0  0  0  0  0
    0.0000   -4.1250    0.0000 C   0  0  0  0  0  0  0  0  0  0  0  0
    0.7145   -3.7125    0.0000 N   0  0  0  0  0  0  0  0  0  0  0  0
    1.4289   -4.1250    0.0000 C   0  0  0  0  0  0  0  0  0  0  0  0
    1.4289   -4.9500    0.0000 C   0  0  0  0  0  0  0  0  0  0  0  0
    2.1434   -5.3625    0.0000 Br  0  0  0  0  0  0  0  0  0  0  0  0
    0.7145   -5.3625    0.0000 C   0  0  0  0  0  0  0  0  0  0  0  0
    0.7145   -6.1875    0.0000 N   0  0  0  0  0  0  0  0  0  0  0  0
    0.0000   -6.6000    0.0000 C   0  0  0  0  0  0  0  0  0  0  0  0
   -0.7145   -6.1875    0.0000 C   0  0  0  0  0  0  0  0  0  0  0  0
    0.0000   -7.4250    0.0000 C   0  0  0  0  0  0  0  0  0  0  0  0
    0.0000   -8.2500    0.0000 C   0  0  0  0  0  0  0  0  0  0  0  0
   -0.8250   -7.4250    0.0000 C   0  0  0  0  0  0  0  0  0  0  0  0
    0.8250   -7.4250    0.0000 O   0  0  0  0  0  0  0  0  0  0  0  0
    0.0000   -4.9500    0.0000 N   0  0  0  0  0  0  0  0  0  0  0  0
   -1.4289   -2.4750    0.0000 C   0  0  0  0  0  0  0  0  0  0  0  0
   -1.4289   -1.6500    0.0000 C   0  0  0  0  0  0  0  0  0  0  0  0
  1  2  1  0
  2  3  1  0
  3  4  1  0
  4  5  2  0
  4  6  1  0
  6  7  2  0
  7  8  2  0
  7  9  1  0
  9 10  1  0
  7 11  1  0
 11 12  2  0
 12 13  1  0
 13 14  2  0
 14 15  1  0
 15 16  1  0
 16 17  2  0
 17 18  1  0
 18 19  2  0
 19 20  1  0
 19 21  1  0
 21 22  1  0
 23 22  1  0
 23 24  1  1
 23 25  1  0
 25 26  1  0
 25 27  1  0
 25 28  1  0
 21 29  2  0
 16 29  1  0
 14 30  1  0
 30 31  2  0
 11 31  1  0
M  END
>  <pIC50>  (221) 
7.38

>  <chembl_id>  (221) 
CHEMBL3648088

>  <canonical_smiles>  (221) 
CCOC(=O)N=S(=O)(CC)c1ccc(Nc2ncc(Br)c(N[C@H](C)C(C)(C)O)n2)cc1

$$$$
CHEMBL3648089
     RDKit          2D

 30 31  0  0  1  0  0  0  0  0999 V2000
    2.5855    1.0164    0.0000 C   0  0  0  0  0  0  0  0  0  0  0  0
    1.7605    1.0164    0.0000 C   0  0  0  0  0  0  0  0  0  0  0  0
    1.3480    0.3020    0.0000 O   0  0  0  0  0  0  0  0  0  0  0  0
    0.5230    0.3020    0.0000 C   0  0  0  0  0  0  0  0  0  0  0  0
    0.1105    1.0164    0.0000 O   0  0  0  0  0  0  0  0  0  0  0  0
    0.1105   -0.4125    0.0000 N   0  0  0  0  0  0  0  0  0  0  0  0
   -0.7145   -0.4125    0.0000 S   0  0  0  0  0  0  0  0  0  0  0  0
   -1.5395   -0.4125    0.0000 O   0  0  0  0  0  0  0  0  0  0  0  0
   -0.7145    0.4125    0.0000 C   0  0  0  0  0  0  0  0  0  0  0  0
   -1.4289    0.8250    0.0000 C   0  0  0  0  0  0  0  0  0  0  0  0
   -0.7145   -1.2375    0.0000 C   0  0  0  0  0  0  0  0  0  0  0  0
    0.0000   -1.6500    0.0000 C   0  0  0  0  0  0  0  0  0  0  0  0
    0.0000   -2.4750    0.0000 C   0  0  0  0  0  0  0  0  0  0  0  0
   -0.7145   -2.8875    0.0000 C   0  0  0  0  0  0  0  0  0  0  0  0
   -0.7145   -3.7125    0.0000 N   0  0  0  0  0  0  0  0  0  0  0  0
    0.0000   -4.1250    0.0000 C   0  0  0  0  0  0  0  0  0  0  0  0
    0.7145   -3.7125    0.0000 N   0  0  0  0  0  0  0  0  0  0  0  0
    1.4289   -4.1250    0.0000 C   0  0  0  0  0  0  0  0  0  0  0  0
    1.4289   -4.9500    0.0000 C   0  0  0  0  0  0  0  0  0  0  0  0
    2.1434   -5.3625    0.0000 Br  0  0  0  0  0  0  0  0  0  0  0  0
    0.7145   -5.3625    0.0000 C   0  0  0  0  0  0  0  0  0  0  0  0
    0.7145   -6.1875    0.0000 N   0  0  0  0  0  0  0  0  0  0  0  0
    1.4289   -6.6000    0.0000 C   0  0  0  0  0  0  0  0  0  0  0  0
    2.1434   -6.1875    0.0000 C   0  0  0  0  0  0  0  0  0  0  0  0
    1.4289   -7.4250    0.0000 C   0  0  0  0  0  0  0  0  0  0  0  0
    2.1434   -7.8375    0.0000 C   0  0  0  0  0  0  0  0  0  0  0  0
    0.7145   -7.8375    0.0000 O   0  0  0  0  0  0  0  0  0  0  0  0
    0.0000   -4.9500    0.0000 N   0  0  0  0  0  0  0  0  0  0  0  0
   -1.4289   -2.4750    0.0000 C   0  0  0  0  0  0  0  0  0  0  0  0
   -1.4289   -1.6500    0.0000 C   0  0  0  0  0  0  0  0  0  0  0  0
  1  2  1  0
  2  3  1  0
  3  4  1  0
  4  5  2  0
  4  6  1  0
  6  7  2  0
  7  8  2  0
  7  9  1  0
  9 10  1  0
  7 11  1  0
 11 12  2  0
 12 13  1  0
 13 14  2  0
 14 15  1  0
 15 16  1  0
 16 17  2  0
 17 18  1  0
 18 19  2  0
 19 20  1  0
 19 21  1  0
 21 22  1  0
 23 22  1  0
 23 24  1  6
 23 25  1  0
 25 26  1  6
 25 27  1  0
 21 28  2  0
 16 28  1  0
 14 29  1  0
 29 30  2  0
 11 30  1  0
M  END
>  <pIC50>  (222) 
7.96

>  <chembl_id>  (222) 
CHEMBL3648089

>  <canonical_smiles>  (222) 
CCOC(=O)N=S(=O)(CC)c1ccc(Nc2ncc(Br)c(N[C@H](C)[C@H](C)O)n2)cc1

$$$$
CHEMBL3648090
     RDKit          2D

 31 32  0  0  1  0  0  0  0  0999 V2000
    2.5855    1.0164    0.0000 C   0  0  0  0  0  0  0  0  0  0  0  0
    1.7605    1.0164    0.0000 C   0  0  0  0  0  0  0  0  0  0  0  0
    1.3480    0.3020    0.0000 O   0  0  0  0  0  0  0  0  0  0  0  0
    0.5230    0.3020    0.0000 C   0  0  0  0  0  0  0  0  0  0  0  0
    0.1105    1.0164    0.0000 O   0  0  0  0  0  0  0  0  0  0  0  0
    0.1105   -0.4125    0.0000 N   0  0  0  0  0  0  0  0  0  0  0  0
   -0.7145   -0.4125    0.0000 S   0  0  0  0  0  0  0  0  0  0  0  0
   -1.5395   -0.4125    0.0000 O   0  0  0  0  0  0  0  0  0  0  0  0
   -0.7145    0.4125    0.0000 C   0  0  0  0  0  0  0  0  0  0  0  0
   -0.7145   -1.2375    0.0000 C   0  0  0  0  0  0  0  0  0  0  0  0
    0.0000   -1.6500    0.0000 C   0  0  0  0  0  0  0  0  0  0  0  0
    0.0000   -2.4750    0.0000 C   0  0  0  0  0  0  0  0  0  0  0  0
   -0.7145   -2.8875    0.0000 C   0  0  0  0  0  0  0  0  0  0  0  0
   -0.7145   -3.7125    0.0000 N   0  0  0  0  0  0  0  0  0  0  0  0
    0.0000   -4.1250    0.0000 C   0  0  0  0  0  0  0  0  0  0  0  0
    0.7145   -3.7125    0.0000 N   0  0  0  0  0  0  0  0  0  0  0  0
    1.4289   -4.1250    0.0000 C   0  0  0  0  0  0  0  0  0  0  0  0
    1.4289   -4.9500    0.0000 C   0  0  0  0  0  0  0  0  0  0  0  0
    2.1434   -5.3625    0.0000 Br  0  0  0  0  0  0  0  0  0  0  0  0
    0.7145   -5.3625    0.0000 C   0  0  0  0  0  0  0  0  0  0  0  0
    0.7145   -6.1875    0.0000 N   0  0  0  0  0  0  0  0  0  0  0  0
    0.0000   -6.6000    0.0000 C   0  0  0  0  0  0  0  0  0  0  0  0
   -0.7145   -6.1875    0.0000 C   0  0  0  0  0  0  0  0  0  0  0  0
    0.0000   -7.4250    0.0000 C   0  0  0  0  0  0  0  0  0  0  0  0
    0.0000   -8.2500    0.0000 C   0  0  0  0  0  0  0  0  0  0  0  0
   -0.8250   -7.4250    0.0000 C   0  0  0  0  0  0  0  0  0  0  0  0
    0.8250   -7.4250    0.0000 O   0  0  0  0  0  0  0  0  0  0  0  0
    0.0000   -4.9500    0.0000 N   0  0  0  0  0  0  0  0  0  0  0  0
   -1.4289   -2.4750    0.0000 C   0  0  0  0  0  0  0  0  0  0  0  0
   -1.4289   -1.6500    0.0000 C   0  0  0  0  0  0  0  0  0  0  0  0
   -2.1434   -1.2375    0.0000 C   0  0  0  0  0  0  0  0  0  0  0  0
  1  2  1  0
  2  3  1  0
  3  4  1  0
  4  5  2  0
  4  6  1  0
  6  7  1  0
  7  8  2  0
  7  9  2  0
  7 10  1  0
 10 11  2  0
 11 12  1  0
 12 13  2  0
 13 14  1  0
 14 15  1  0
 15 16  2  0
 16 17  1  0
 17 18  2  0
 18 19  1  0
 18 20  1  0
 20 21  1  0
 22 21  1  0
 22 23  1  1
 22 24  1  0
 24 25  1  0
 24 26  1  0
 24 27  1  0
 20 28  2  0
 15 28  1  0
 13 29  1  0
 29 30  2  0
 10 30  1  0
 30 31  1  0
M  END
>  <pIC50>  (223) 
7.32

>  <chembl_id>  (223) 
CHEMBL3648090

>  <canonical_smiles>  (223) 
CCOC(=O)N=S(=O)(C)c1ccc(Nc2ncc(Br)c(N[C@H](C)C(C)(C)O)n2)cc1C

$$$$
CHEMBL3648091
     RDKit          2D

 30 31  0  0  1  0  0  0  0  0999 V2000
    2.5855    1.0164    0.0000 C   0  0  0  0  0  0  0  0  0  0  0  0
    1.7605    1.0164    0.0000 C   0  0  0  0  0  0  0  0  0  0  0  0
    1.3480    0.3020    0.0000 O   0  0  0  0  0  0  0  0  0  0  0  0
    0.5230    0.3020    0.0000 C   0  0  0  0  0  0  0  0  0  0  0  0
    0.1105    1.0164    0.0000 O   0  0  0  0  0  0  0  0  0  0  0  0
    0.1105   -0.4125    0.0000 N   0  0  0  0  0  0  0  0  0  0  0  0
   -0.7145   -0.4125    0.0000 S   0  0  0  0  0  0  0  0  0  0  0  0
   -1.5395   -0.4125    0.0000 O   0  0  0  0  0  0  0  0  0  0  0  0
   -0.7145    0.4125    0.0000 C   0  0  0  0  0  0  0  0  0  0  0  0
   -0.7145   -1.2375    0.0000 C   0  0  0  0  0  0  0  0  0  0  0  0
    0.0000   -1.6500    0.0000 C   0  0  0  0  0  0  0  0  0  0  0  0
    0.0000   -2.4750    0.0000 C   0  0  0  0  0  0  0  0  0  0  0  0
   -0.7145   -2.8875    0.0000 C   0  0  0  0  0  0  0  0  0  0  0  0
   -0.7145   -3.7125    0.0000 N   0  0  0  0  0  0  0  0  0  0  0  0
    0.0000   -4.1250    0.0000 C   0  0  0  0  0  0  0  0  0  0  0  0
    0.7145   -3.7125    0.0000 N   0  0  0  0  0  0  0  0  0  0  0  0
    1.4289   -4.1250    0.0000 C   0  0  0  0  0  0  0  0  0  0  0  0
    1.4289   -4.9500    0.0000 C   0  0  0  0  0  0  0  0  0  0  0  0
    2.1434   -5.3625    0.0000 Br  0  0  0  0  0  0  0  0  0  0  0  0
    0.7145   -5.3625    0.0000 C   0  0  0  0  0  0  0  0  0  0  0  0
    0.7145   -6.1875    0.0000 N   0  0  0  0  0  0  0  0  0  0  0  0
    1.4289   -6.6000    0.0000 C   0  0  0  0  0  0  0  0  0  0  0  0
    2.1434   -6.1875    0.0000 C   0  0  0  0  0  0  0  0  0  0  0  0
    1.4289   -7.4250    0.0000 C   0  0  0  0  0  0  0  0  0  0  0  0
    2.1434   -7.8375    0.0000 C   0  0  0  0  0  0  0  0  0  0  0  0
    0.7145   -7.8375    0.0000 O   0  0  0  0  0  0  0  0  0  0  0  0
    0.0000   -4.9500    0.0000 N   0  0  0  0  0  0  0  0  0  0  0  0
   -1.4289   -2.4750    0.0000 C   0  0  0  0  0  0  0  0  0  0  0  0
   -1.4289   -1.6500    0.0000 C   0  0  0  0  0  0  0  0  0  0  0  0
   -2.1434   -1.2375    0.0000 C   0  0  0  0  0  0  0  0  0  0  0  0
  1  2  1  0
  2  3  1  0
  3  4  1  0
  4  5  2  0
  4  6  1  0
  6  7  1  0
  7  8  2  0
  7  9  2  0
  7 10  1  0
 10 11  2  0
 11 12  1  0
 12 13  2  0
 13 14  1  0
 14 15  1  0
 15 16  2  0
 16 17  1  0
 17 18  2  0
 18 19  1  0
 18 20  1  0
 20 21  1  0
 22 21  1  0
 22 23  1  6
 22 24  1  0
 24 25  1  6
 24 26  1  0
 20 27  2  0
 15 27  1  0
 13 28  1  0
 28 29  2  0
 10 29  1  0
 29 30  1  0
M  END
>  <pIC50>  (224) 
7.11

>  <chembl_id>  (224) 
CHEMBL3648091

>  <canonical_smiles>  (224) 
CCOC(=O)N=S(=O)(C)c1ccc(Nc2ncc(Br)c(N[C@H](C)[C@H](C)O)n2)cc1C

$$$$
CHEMBL3648092
     RDKit          2D

 30 31  0  0  1  0  0  0  0  0999 V2000
    2.5855    1.0164    0.0000 C   0  0  0  0  0  0  0  0  0  0  0  0
    1.7605    1.0164    0.0000 C   0  0  0  0  0  0  0  0  0  0  0  0
    1.3480    0.3020    0.0000 O   0  0  0  0  0  0  0  0  0  0  0  0
    0.5230    0.3020    0.0000 C   0  0  0  0  0  0  0  0  0  0  0  0
    0.1105    1.0164    0.0000 O   0  0  0  0  0  0  0  0  0  0  0  0
    0.1105   -0.4125    0.0000 N   0  0  0  0  0  0  0  0  0  0  0  0
   -0.7145   -0.4125    0.0000 S   0  0  0  0  0  0  0  0  0  0  0  0
   -1.5395   -0.4125    0.0000 O   0  0  0  0  0  0  0  0  0  0  0  0
   -0.7145    0.4125    0.0000 C   0  0  0  0  0  0  0  0  0  0  0  0
   -1.4289    0.8250    0.0000 C   0  0  0  0  0  0  0  0  0  0  0  0
   -0.7145   -1.2375    0.0000 C   0  0  0  0  0  0  0  0  0  0  0  0
    0.0000   -1.6500    0.0000 C   0  0  0  0  0  0  0  0  0  0  0  0
    0.0000   -2.4750    0.0000 C   0  0  0  0  0  0  0  0  0  0  0  0
   -0.7145   -2.8875    0.0000 C   0  0  0  0  0  0  0  0  0  0  0  0
   -0.7145   -3.7125    0.0000 N   0  0  0  0  0  0  0  0  0  0  0  0
    0.0000   -4.1250    0.0000 C   0  0  0  0  0  0  0  0  0  0  0  0
    0.7145   -3.7125    0.0000 N   0  0  0  0  0  0  0  0  0  0  0  0
    1.4289   -4.1250    0.0000 C   0  0  0  0  0  0  0  0  0  0  0  0
    1.4289   -4.9500    0.0000 C   0  0  0  0  0  0  0  0  0  0  0  0
    2.1434   -5.3625    0.0000 Br  0  0  0  0  0  0  0  0  0  0  0  0
    0.7145   -5.3625    0.0000 C   0  0  0  0  0  0  0  0  0  0  0  0
    0.7145   -6.1875    0.0000 O   0  0  0  0  0  0  0  0  0  0  0  0
    1.4289   -6.6000    0.0000 C   0  0  0  0  0  0  0  0  0  0  0  0
    2.1434   -6.1875    0.0000 C   0  0  0  0  0  0  0  0  0  0  0  0
    1.4289   -7.4250    0.0000 C   0  0  0  0  0  0  0  0  0  0  0  0
    2.1434   -7.8375    0.0000 C   0  0  0  0  0  0  0  0  0  0  0  0
    0.7145   -7.8375    0.0000 O   0  0  0  0  0  0  0  0  0  0  0  0
    0.0000   -4.9500    0.0000 N   0  0  0  0  0  0  0  0  0  0  0  0
   -1.4289   -2.4750    0.0000 C   0  0  0  0  0  0  0  0  0  0  0  0
   -1.4289   -1.6500    0.0000 C   0  0  0  0  0  0  0  0  0  0  0  0
  1  2  1  0
  2  3  1  0
  3  4  1  0
  4  5  2  0
  4  6  1  0
  6  7  2  0
  7  8  2  0
  7  9  1  0
  9 10  1  0
  7 11  1  0
 11 12  2  0
 12 13  1  0
 13 14  2  0
 14 15  1  0
 15 16  1  0
 16 17  2  0
 17 18  1  0
 18 19  2  0
 19 20  1  0
 19 21  1  0
 21 22  1  0
 23 22  1  0
 23 24  1  6
 23 25  1  0
 25 26  1  6
 25 27  1  0
 21 28  2  0
 16 28  1  0
 14 29  1  0
 29 30  2  0
 11 30  1  0
M  END
>  <pIC50>  (225) 
7.72

>  <chembl_id>  (225) 
CHEMBL3648092

>  <canonical_smiles>  (225) 
CCOC(=O)N=S(=O)(CC)c1ccc(Nc2ncc(Br)c(O[C@H](C)[C@H](C)O)n2)cc1

$$$$
CHEMBL3648093
     RDKit          2D

 29 30  0  0  1  0  0  0  0  0999 V2000
    2.5855    1.0164    0.0000 C   0  0  0  0  0  0  0  0  0  0  0  0
    1.7605    1.0164    0.0000 C   0  0  0  0  0  0  0  0  0  0  0  0
    1.3480    0.3020    0.0000 O   0  0  0  0  0  0  0  0  0  0  0  0
    0.5230    0.3020    0.0000 C   0  0  0  0  0  0  0  0  0  0  0  0
    0.1105    1.0164    0.0000 O   0  0  0  0  0  0  0  0  0  0  0  0
    0.1105   -0.4125    0.0000 N   0  0  0  0  0  0  0  0  0  0  0  0
   -0.7145   -0.4125    0.0000 S   0  0  0  0  0  0  0  0  0  0  0  0
   -1.5395   -0.4125    0.0000 O   0  0  0  0  0  0  0  0  0  0  0  0
   -0.7145    0.4125    0.0000 C   0  0  0  0  0  0  0  0  0  0  0  0
   -0.7145   -1.2375    0.0000 C   0  0  0  0  0  0  0  0  0  0  0  0
    0.0000   -1.6500    0.0000 C   0  0  0  0  0  0  0  0  0  0  0  0
    0.0000   -2.4750    0.0000 C   0  0  0  0  0  0  0  0  0  0  0  0
   -0.7145   -2.8875    0.0000 C   0  0  0  0  0  0  0  0  0  0  0  0
   -0.7145   -3.7125    0.0000 N   0  0  0  0  0  0  0  0  0  0  0  0
    0.0000   -4.1250    0.0000 C   0  0  0  0  0  0  0  0  0  0  0  0
    0.7145   -3.7125    0.0000 N   0  0  0  0  0  0  0  0  0  0  0  0
    1.4289   -4.1250    0.0000 C   0  0  0  0  0  0  0  0  0  0  0  0
    1.4289   -4.9500    0.0000 C   0  0  0  0  0  0  0  0  0  0  0  0
    2.1434   -5.3625    0.0000 Br  0  0  0  0  0  0  0  0  0  0  0  0
    0.7145   -5.3625    0.0000 C   0  0  0  0  0  0  0  0  0  0  0  0
    0.7145   -6.1875    0.0000 O   0  0  0  0  0  0  0  0  0  0  0  0
    1.4289   -6.6000    0.0000 C   0  0  0  0  0  0  0  0  0  0  0  0
    2.1434   -6.1875    0.0000 C   0  0  0  0  0  0  0  0  0  0  0  0
    1.4289   -7.4250    0.0000 C   0  0  0  0  0  0  0  0  0  0  0  0
    2.1434   -7.8375    0.0000 C   0  0  0  0  0  0  0  0  0  0  0  0
    0.7145   -7.8375    0.0000 O   0  0  0  0  0  0  0  0  0  0  0  0
    0.0000   -4.9500    0.0000 N   0  0  0  0  0  0  0  0  0  0  0  0
   -1.4289   -2.4750    0.0000 C   0  0  0  0  0  0  0  0  0  0  0  0
   -1.4289   -1.6500    0.0000 C   0  0  0  0  0  0  0  0  0  0  0  0
  1  2  1  0
  2  3  1  0
  3  4  1  0
  4  5  2  0
  4  6  1  0
  6  7  1  0
  7  8  2  0
  7  9  2  0
  7 10  1  0
 10 11  2  0
 11 12  1  0
 12 13  2  0
 13 14  1  0
 14 15  1  0
 15 16  2  0
 16 17  1  0
 17 18  2  0
 18 19  1  0
 18 20  1  0
 20 21  1  0
 22 21  1  0
 22 23  1  6
 22 24  1  0
 24 25  1  6
 24 26  1  0
 20 27  2  0
 15 27  1  0
 13 28  1  0
 28 29  2  0
 10 29  1  0
M  END
>  <pIC50>  (226) 
7.85

>  <chembl_id>  (226) 
CHEMBL3648093

>  <canonical_smiles>  (226) 
CCOC(=O)N=S(=O)(C)c1ccc(Nc2ncc(Br)c(O[C@H](C)[C@H](C)O)n2)cc1

$$$$
CHEMBL3648094
     RDKit          2D

 27 28  0  0  1  0  0  0  0  0999 V2000
   11.4315   -1.6500    0.0000 C   0  0  0  0  0  0  0  0  0  0  0  0
   10.7171   -2.0625    0.0000 C   0  0  0  0  0  0  0  0  0  0  0  0
   10.0026   -1.6500    0.0000 S   0  0  0  0  0  0  0  0  0  0  0  0
   10.4151   -0.9355    0.0000 N   0  0  0  0  0  0  0  0  0  0  0  0
    9.5901   -2.3645    0.0000 O   0  0  0  0  0  0  0  0  0  0  0  0
    9.2881   -1.2375    0.0000 C   0  0  0  0  0  0  0  0  0  0  0  0
    8.5737   -1.6500    0.0000 C   0  0  0  0  0  0  0  0  0  0  0  0
    7.8592   -1.2375    0.0000 C   0  0  0  0  0  0  0  0  0  0  0  0
    7.8592   -0.4125    0.0000 C   0  0  0  0  0  0  0  0  0  0  0  0
    7.1447    0.0000    0.0000 N   0  0  0  0  0  0  0  0  0  0  0  0
    6.4302   -0.4125    0.0000 C   0  0  0  0  0  0  0  0  0  0  0  0
    6.4302   -1.2375    0.0000 N   0  0  0  0  0  0  0  0  0  0  0  0
    5.7158   -1.6500    0.0000 C   0  0  0  0  0  0  0  0  0  0  0  0
    5.0013   -1.2375    0.0000 C   0  0  0  0  0  0  0  0  0  0  0  0
    4.2868   -1.6500    0.0000 Br  0  0  0  0  0  0  0  0  0  0  0  0
    5.0013   -0.4125    0.0000 C   0  0  0  0  0  0  0  0  0  0  0  0
    4.2868    0.0000    0.0000 N   0  0  0  0  0  0  0  0  0  0  0  0
    4.2868    0.8250    0.0000 C   0  0  0  0  0  0  0  0  0  0  0  0
    3.5724    1.2375    0.0000 C   0  0  0  0  0  0  0  0  0  0  0  0
    3.5724    2.0625    0.0000 O   0  0  0  0  0  0  0  0  0  0  0  0
    2.8579    2.4750    0.0000 C   0  0  0  0  0  0  0  0  0  0  0  0
    5.0013    1.2375    0.0000 C   0  0  0  0  0  0  0  0  0  0  0  0
    5.0013    2.0625    0.0000 C   0  0  0  0  0  0  0  0  0  0  0  0
    5.7158    0.8250    0.0000 O   0  0  0  0  0  0  0  0  0  0  0  0
    5.7158    0.0000    0.0000 N   0  0  0  0  0  0  0  0  0  0  0  0
    8.5737    0.0000    0.0000 C   0  0  0  0  0  0  0  0  0  0  0  0
    9.2881   -0.4125    0.0000 C   0  0  0  0  0  0  0  0  0  0  0  0
  1  2  1  0
  2  3  1  0
  3  4  2  0
  3  5  2  0
  3  6  1  0
  6  7  2  0
  7  8  1  0
  8  9  2  0
  9 10  1  0
 10 11  1  0
 11 12  2  0
 12 13  1  0
 13 14  2  0
 14 15  1  0
 14 16  1  0
 16 17  1  0
 18 17  1  0
 18 19  1  6
 19 20  1  0
 20 21  1  0
 18 22  1  0
 22 23  1  6
 22 24  1  0
 16 25  2  0
 11 25  1  0
  9 26  1  0
 26 27  2  0
  6 27  1  0
M  END
>  <pIC50>  (227) 
8.15

>  <chembl_id>  (227) 
CHEMBL3648094

>  <canonical_smiles>  (227) 
CCS(=N)(=O)c1ccc(Nc2ncc(Br)c(N[C@H](COC)[C@H](C)O)n2)cc1

$$$$
CHEMBL3648095
     RDKit          2D

 25 26  0  0  1  0  0  0  0  0999 V2000
   -1.4289    0.8250    0.0000 C   0  0  0  0  0  0  0  0  0  0  0  0
   -0.7145    0.4125    0.0000 C   0  0  0  0  0  0  0  0  0  0  0  0
   -0.7145   -0.4125    0.0000 S   0  0  0  0  0  0  0  0  0  0  0  0
   -1.5395   -0.4125    0.0000 N   0  0  0  0  0  0  0  0  0  0  0  0
    0.1105   -0.4125    0.0000 O   0  0  0  0  0  0  0  0  0  0  0  0
   -0.7145   -1.2375    0.0000 C   0  0  0  0  0  0  0  0  0  0  0  0
    0.0000   -1.6500    0.0000 C   0  0  0  0  0  0  0  0  0  0  0  0
    0.0000   -2.4750    0.0000 C   0  0  0  0  0  0  0  0  0  0  0  0
   -0.7145   -2.8875    0.0000 C   0  0  0  0  0  0  0  0  0  0  0  0
   -0.7145   -3.7125    0.0000 N   0  0  0  0  0  0  0  0  0  0  0  0
    0.0000   -4.1250    0.0000 C   0  0  0  0  0  0  0  0  0  0  0  0
    0.7145   -3.7125    0.0000 N   0  0  0  0  0  0  0  0  0  0  0  0
    1.4289   -4.1250    0.0000 C   0  0  0  0  0  0  0  0  0  0  0  0
    1.4289   -4.9500    0.0000 C   0  0  0  0  0  0  0  0  0  0  0  0
    2.1434   -5.3625    0.0000 Br  0  0  0  0  0  0  0  0  0  0  0  0
    0.7145   -5.3625    0.0000 C   0  0  0  0  0  0  0  0  0  0  0  0
    0.7145   -6.1875    0.0000 N   0  0  0  0  0  0  0  0  0  0  0  0
    1.4289   -6.6000    0.0000 C   0  0  0  0  0  0  0  0  0  0  0  0
    2.1434   -6.1875    0.0000 C   0  0  0  0  0  0  0  0  0  0  0  0
    1.4289   -7.4250    0.0000 C   0  0  0  0  0  0  0  0  0  0  0  0
    2.1434   -7.8375    0.0000 C   0  0  0  0  0  0  0  0  0  0  0  0
    0.7145   -7.8375    0.0000 O   0  0  0  0  0  0  0  0  0  0  0  0
    0.0000   -4.9500    0.0000 N   0  0  0  0  0  0  0  0  0  0  0  0
   -1.4289   -2.4750    0.0000 C   0  0  0  0  0  0  0  0  0  0  0  0
   -1.4289   -1.6500    0.0000 C   0  0  0  0  0  0  0  0  0  0  0  0
  1  2  1  0
  2  3  1  0
  3  4  2  0
  3  5  2  0
  3  6  1  0
  6  7  2  0
  7  8  1  0
  8  9  2  0
  9 10  1  0
 10 11  1  0
 11 12  2  0
 12 13  1  0
 13 14  2  0
 14 15  1  0
 14 16  1  0
 16 17  1  0
 18 17  1  0
 18 19  1  6
 18 20  1  0
 20 21  1  6
 20 22  1  0
 16 23  2  0
 11 23  1  0
  9 24  1  0
 24 25  2  0
  6 25  1  0
M  END
>  <pIC50>  (228) 
8.40

>  <chembl_id>  (228) 
CHEMBL3648095

>  <canonical_smiles>  (228) 
CCS(=N)(=O)c1ccc(Nc2ncc(Br)c(N[C@H](C)[C@H](C)O)n2)cc1

$$$$
CHEMBL3648096
     RDKit          2D

 25 26  0  0  1  0  0  0  0  0999 V2000
    0.7145    1.2375    0.0000 C   0  0  0  0  0  0  0  0  0  0  0  0
    1.4289    0.8250    0.0000 C   0  0  0  0  0  0  0  0  0  0  0  0
    2.1434    1.2375    0.0000 O   0  0  0  0  0  0  0  0  0  0  0  0
    1.4289    0.0000    0.0000 C   0  0  0  0  0  0  0  0  0  0  0  0
    0.7145   -0.4125    0.0000 C   0  0  0  0  0  0  0  0  0  0  0  0
    2.1434   -0.4125    0.0000 N   0  0  0  0  0  0  0  0  0  0  0  0
    2.1434   -1.2375    0.0000 C   0  0  0  0  0  0  0  0  0  0  0  0
    2.8579   -1.6500    0.0000 N   0  0  0  0  0  0  0  0  0  0  0  0
    2.8579   -2.4750    0.0000 C   0  0  0  0  0  0  0  0  0  0  0  0
    3.5724   -2.8875    0.0000 N   0  0  0  0  0  0  0  0  0  0  0  0
    3.5724   -3.7125    0.0000 C   0  0  0  0  0  0  0  0  0  0  0  0
    4.2868   -4.1250    0.0000 C   0  0  0  0  0  0  0  0  0  0  0  0
    4.2868   -4.9500    0.0000 C   0  0  0  0  0  0  0  0  0  0  0  0
    3.5724   -5.3625    0.0000 C   0  0  0  0  0  0  0  0  0  0  0  0
    2.8579   -4.9500    0.0000 C   0  0  0  0  0  0  0  0  0  0  0  0
    2.1434   -5.3625    0.0000 C   0  0  0  0  0  0  0  0  0  0  0  0
    2.8579   -4.1250    0.0000 C   0  0  0  0  0  0  0  0  0  0  0  0
    3.5724   -6.1875    0.0000 S   0  0  0  0  0  0  0  0  0  0  0  0
    3.5724   -7.0125    0.0000 N   0  0  0  0  0  0  0  0  0  0  0  0
    2.7474   -6.1875    0.0000 O   0  0  0  0  0  0  0  0  0  0  0  0
    4.3974   -6.1875    0.0000 C   0  0  0  0  0  0  0  0  0  0  0  0
    2.1434   -2.8875    0.0000 N   0  0  0  0  0  0  0  0  0  0  0  0
    1.4289   -2.4750    0.0000 C   0  0  0  0  0  0  0  0  0  0  0  0
    1.4289   -1.6500    0.0000 C   0  0  0  0  0  0  0  0  0  0  0  0
    0.7145   -1.2375    0.0000 Br  0  0  0  0  0  0  0  0  0  0  0  0
  2  1  1  6
  2  3  1  0
  2  4  1  0
  4  5  1  6
  4  6  1  0
  6  7  1  0
  7  8  2  0
  8  9  1  0
  9 10  1  0
 10 11  1  0
 11 12  2  0
 12 13  1  0
 13 14  2  0
 14 15  1  0
 15 16  1  0
 15 17  2  0
 11 17  1  0
 14 18  1  0
 18 19  1  0
 18 20  2  0
 18 21  2  0
  9 22  2  0
 22 23  1  0
 23 24  2  0
  7 24  1  0
 24 25  1  0
M  END
>  <pIC50>  (229) 
8.40

>  <chembl_id>  (229) 
CHEMBL3648096

>  <canonical_smiles>  (229) 
C[C@H](O)[C@@H](C)Nc1nc(Nc2ccc(c(C)c2)S(=N)(=O)C)ncc1Br

$$$$
CHEMBL3648097
     RDKit          2D

 22 23  0  0  0  0  0  0  0  0999 V2000
    1.4289    0.8250    0.0000 C   0  0  0  0  0  0  0  0  0  0  0  0
    1.4289    0.0000    0.0000 C   0  0  0  0  0  0  0  0  0  0  0  0
    2.1434   -0.4125    0.0000 O   0  0  0  0  0  0  0  0  0  0  0  0
    2.1434   -1.2375    0.0000 C   0  0  0  0  0  0  0  0  0  0  0  0
    2.8579   -1.6500    0.0000 N   0  0  0  0  0  0  0  0  0  0  0  0
    2.8579   -2.4750    0.0000 C   0  0  0  0  0  0  0  0  0  0  0  0
    3.5724   -2.8875    0.0000 N   0  0  0  0  0  0  0  0  0  0  0  0
    3.5724   -3.7125    0.0000 C   0  0  0  0  0  0  0  0  0  0  0  0
    4.2868   -4.1250    0.0000 C   0  0  0  0  0  0  0  0  0  0  0  0
    4.2868   -4.9500    0.0000 C   0  0  0  0  0  0  0  0  0  0  0  0
    3.5724   -5.3625    0.0000 C   0  0  0  0  0  0  0  0  0  0  0  0
    2.8579   -4.9500    0.0000 C   0  0  0  0  0  0  0  0  0  0  0  0
    2.8579   -4.1250    0.0000 C   0  0  0  0  0  0  0  0  0  0  0  0
    3.5724   -6.1875    0.0000 S   0  0  0  0  0  0  0  0  0  0  0  0
    2.7474   -6.1875    0.0000 N   0  0  0  0  0  0  0  0  0  0  0  0
    4.3974   -6.1875    0.0000 O   0  0  0  0  0  0  0  0  0  0  0  0
    3.5724   -7.0125    0.0000 C   0  0  0  0  0  0  0  0  0  0  0  0
    4.2868   -7.4250    0.0000 C   0  0  0  0  0  0  0  0  0  0  0  0
    2.1434   -2.8875    0.0000 N   0  0  0  0  0  0  0  0  0  0  0  0
    1.4289   -2.4750    0.0000 C   0  0  0  0  0  0  0  0  0  0  0  0
    1.4289   -1.6500    0.0000 C   0  0  0  0  0  0  0  0  0  0  0  0
    0.7145   -1.2375    0.0000 Br  0  0  0  0  0  0  0  0  0  0  0  0
  1  2  1  0
  2  3  1  0
  3  4  1  0
  4  5  2  0
  5  6  1  0
  6  7  1  0
  7  8  1  0
  8  9  2  0
  9 10  1  0
 10 11  2  0
 11 12  1  0
 12 13  2  0
  8 13  1  0
 11 14  1  0
 14 15  2  0
 14 16  2  0
 14 17  1  0
 17 18  1  0
  6 19  2  0
 19 20  1  0
 20 21  2  0
  4 21  1  0
 21 22  1  0
M  END
>  <pIC50>  (230) 
7.20

>  <chembl_id>  (230) 
CHEMBL3648097

>  <canonical_smiles>  (230) 
CCOc1nc(Nc2ccc(cc2)S(=N)(=O)CC)ncc1Br

$$$$
CHEMBL3648098
     RDKit          2D

 32 33  0  0  1  0  0  0  0  0999 V2000
    0.7145   -0.4125    0.0000 C   0  0  0  0  0  0  0  0  0  0  0  0
    1.4289    0.0000    0.0000 C   0  0  0  0  0  0  0  0  0  0  0  0
    1.4289    0.8250    0.0000 C   0  0  0  0  0  0  0  0  0  0  0  0
    0.7145    1.2375    0.0000 O   0  0  0  0  0  0  0  0  0  0  0  0
    2.1434   -0.4125    0.0000 N   0  0  0  0  0  0  0  0  0  0  0  0
    2.1434   -1.2375    0.0000 C   0  0  0  0  0  0  0  0  0  0  0  0
    2.8579   -1.6500    0.0000 N   0  0  0  0  0  0  0  0  0  0  0  0
    2.8579   -2.4750    0.0000 C   0  0  0  0  0  0  0  0  0  0  0  0
    3.5724   -2.8875    0.0000 N   0  0  0  0  0  0  0  0  0  0  0  0
    3.5724   -3.7125    0.0000 C   0  0  0  0  0  0  0  0  0  0  0  0
    4.2868   -4.1250    0.0000 C   0  0  0  0  0  0  0  0  0  0  0  0
    4.2868   -4.9500    0.0000 C   0  0  0  0  0  0  0  0  0  0  0  0
    3.5724   -5.3625    0.0000 C   0  0  0  0  0  0  0  0  0  0  0  0
    2.8579   -4.9500    0.0000 C   0  0  0  0  0  0  0  0  0  0  0  0
    2.8579   -4.1250    0.0000 C   0  0  0  0  0  0  0  0  0  0  0  0
    3.5724   -6.1875    0.0000 S   0  0  0  0  0  0  0  0  0  0  0  0
    4.3974   -6.1875    0.0000 O   0  0  0  0  0  0  0  0  0  0  0  0
    3.5724   -7.0125    0.0000 N   0  0  0  0  0  0  0  0  0  0  0  0
    4.2868   -7.4250    0.0000 S   0  0  0  0  0  0  0  0  0  0  0  0
    3.8743   -8.1395    0.0000 O   0  0  0  0  0  0  0  0  0  0  0  0
    4.6993   -6.7105    0.0000 O   0  0  0  0  0  0  0  0  0  0  0  0
    5.0013   -7.8375    0.0000 C   0  0  0  0  0  0  0  0  0  0  0  0
    5.0013   -8.6625    0.0000 C   0  0  0  0  0  0  0  0  0  0  0  0
    5.7158   -9.0750    0.0000 Si  0  0  0  0  0  4  0  0  0  0  0  0
    6.4302   -9.4875    0.0000 C   0  0  0  0  0  0  0  0  0  0  0  0
    5.3033   -9.7895    0.0000 C   0  0  0  0  0  0  0  0  0  0  0  0
    6.1283   -8.3605    0.0000 C   0  0  0  0  0  0  0  0  0  0  0  0
    2.7474   -6.1875    0.0000 C   0  0  0  0  0  0  0  0  0  0  0  0
    2.1434   -2.8875    0.0000 N   0  0  0  0  0  0  0  0  0  0  0  0
    1.4289   -2.4750    0.0000 C   0  0  0  0  0  0  0  0  0  0  0  0
    1.4289   -1.6500    0.0000 C   0  0  0  0  0  0  0  0  0  0  0  0
    0.7145   -1.2375    0.0000 Br  0  0  0  0  0  0  0  0  0  0  0  0
  2  1  1  6
  2  3  1  0
  3  4  1  0
  2  5  1  0
  5  6  1  0
  6  7  2  0
  7  8  1  0
  8  9  1  0
  9 10  1  0
 10 11  2  0
 11 12  1  0
 12 13  2  0
 13 14  1  0
 14 15  2  0
 10 15  1  0
 13 16  1  0
 16 17  2  0
 16 18  1  0
 18 19  1  0
 19 20  2  0
 19 21  2  0
 19 22  1  0
 22 23  1  0
 23 24  1  0
 24 25  1  0
 24 26  1  0
 24 27  1  0
 16 28  2  0
  8 29  2  0
 29 30  1  0
 30 31  2  0
  6 31  1  0
 31 32  1  0
M  END
>  <pIC50>  (231) 
6.41

>  <chembl_id>  (231) 
CHEMBL3648098

>  <canonical_smiles>  (231) 
C[C@H](CO)Nc1nc(Nc2ccc(cc2)S(=O)(=NS(=O)(=O)CC[Si](C)(C)C)C)ncc1Br

$$$$
CHEMBL3648100
     RDKit          2D

 23 24  0  0  0  0  0  0  0  0999 V2000
    0.7145    1.2375    0.0000 C   0  0  0  0  0  0  0  0  0  0  0  0
    1.4289    0.8250    0.0000 C   0  0  0  0  0  0  0  0  0  0  0  0
    1.4289    0.0000    0.0000 C   0  0  0  0  0  0  0  0  0  0  0  0
    0.7145   -0.4125    0.0000 C   0  0  0  0  0  0  0  0  0  0  0  0
    2.1434   -0.4125    0.0000 S   0  0  0  0  0  0  0  0  0  0  0  0
    2.1434   -1.2375    0.0000 C   0  0  0  0  0  0  0  0  0  0  0  0
    2.8579   -1.6500    0.0000 N   0  0  0  0  0  0  0  0  0  0  0  0
    2.8579   -2.4750    0.0000 C   0  0  0  0  0  0  0  0  0  0  0  0
    3.5724   -2.8875    0.0000 N   0  0  0  0  0  0  0  0  0  0  0  0
    3.5724   -3.7125    0.0000 C   0  0  0  0  0  0  0  0  0  0  0  0
    4.2868   -4.1250    0.0000 C   0  0  0  0  0  0  0  0  0  0  0  0
    4.2868   -4.9500    0.0000 C   0  0  0  0  0  0  0  0  0  0  0  0
    3.5724   -5.3625    0.0000 C   0  0  0  0  0  0  0  0  0  0  0  0
    2.8579   -4.9500    0.0000 C   0  0  0  0  0  0  0  0  0  0  0  0
    2.8579   -4.1250    0.0000 C   0  0  0  0  0  0  0  0  0  0  0  0
    3.5724   -6.1875    0.0000 S   0  0  0  0  0  0  0  0  0  0  0  0
    3.5724   -7.0125    0.0000 N   0  0  0  0  0  0  0  0  0  0  0  0
    2.7474   -6.1875    0.0000 O   0  0  0  0  0  0  0  0  0  0  0  0
    4.3974   -6.1875    0.0000 C   0  0  0  0  0  0  0  0  0  0  0  0
    2.1434   -2.8875    0.0000 N   0  0  0  0  0  0  0  0  0  0  0  0
    1.4289   -2.4750    0.0000 C   0  0  0  0  0  0  0  0  0  0  0  0
    1.4289   -1.6500    0.0000 C   0  0  0  0  0  0  0  0  0  0  0  0
    0.7145   -1.2375    0.0000 Br  0  0  0  0  0  0  0  0  0  0  0  0
  1  2  1  0
  2  3  1  0
  3  4  1  0
  3  5  1  0
  5  6  1  0
  6  7  2  0
  7  8  1  0
  8  9  1  0
  9 10  1  0
 10 11  2  0
 11 12  1  0
 12 13  2  0
 13 14  1  0
 14 15  2  0
 10 15  1  0
 13 16  1  0
 16 17  1  0
 16 18  2  0
 16 19  2  0
  8 20  2  0
 20 21  1  0
 21 22  2  0
  6 22  1  0
 22 23  1  0
M  END
>  <pIC50>  (232) 
7.48

>  <chembl_id>  (232) 
CHEMBL3648100

>  <canonical_smiles>  (232) 
CCC(C)Sc1nc(Nc2ccc(cc2)S(=N)(=O)C)ncc1Br

$$$$
CHEMBL3648101
     RDKit          2D

 23 24  0  0  0  0  0  0  0  0999 V2000
    0.7145    1.2375    0.0000 C   0  0  0  0  0  0  0  0  0  0  0  0
    1.4289    0.8250    0.0000 C   0  0  0  0  0  0  0  0  0  0  0  0
    2.1434    1.2375    0.0000 O   0  0  0  0  0  0  0  0  0  0  0  0
    1.4289    0.0000    0.0000 C   0  0  0  0  0  0  0  0  0  0  0  0
    2.1434   -0.4125    0.0000 S   0  0  0  0  0  0  0  0  0  0  0  0
    2.1434   -1.2375    0.0000 C   0  0  0  0  0  0  0  0  0  0  0  0
    2.8579   -1.6500    0.0000 N   0  0  0  0  0  0  0  0  0  0  0  0
    2.8579   -2.4750    0.0000 C   0  0  0  0  0  0  0  0  0  0  0  0
    3.5724   -2.8875    0.0000 N   0  0  0  0  0  0  0  0  0  0  0  0
    3.5724   -3.7125    0.0000 C   0  0  0  0  0  0  0  0  0  0  0  0
    4.2868   -4.1250    0.0000 C   0  0  0  0  0  0  0  0  0  0  0  0
    4.2868   -4.9500    0.0000 C   0  0  0  0  0  0  0  0  0  0  0  0
    3.5724   -5.3625    0.0000 C   0  0  0  0  0  0  0  0  0  0  0  0
    2.8579   -4.9500    0.0000 C   0  0  0  0  0  0  0  0  0  0  0  0
    2.8579   -4.1250    0.0000 C   0  0  0  0  0  0  0  0  0  0  0  0
    3.5724   -6.1875    0.0000 S   0  0  0  0  0  0  0  0  0  0  0  0
    3.5724   -7.0125    0.0000 N   0  0  0  0  0  0  0  0  0  0  0  0
    2.7474   -6.1875    0.0000 O   0  0  0  0  0  0  0  0  0  0  0  0
    4.3974   -6.1875    0.0000 C   0  0  0  0  0  0  0  0  0  0  0  0
    2.1434   -2.8875    0.0000 N   0  0  0  0  0  0  0  0  0  0  0  0
    1.4289   -2.4750    0.0000 C   0  0  0  0  0  0  0  0  0  0  0  0
    1.4289   -1.6500    0.0000 C   0  0  0  0  0  0  0  0  0  0  0  0
    0.7145   -1.2375    0.0000 Br  0  0  0  0  0  0  0  0  0  0  0  0
  1  2  1  0
  2  3  1  0
  2  4  1  0
  4  5  1  0
  5  6  1  0
  6  7  2  0
  7  8  1  0
  8  9  1  0
  9 10  1  0
 10 11  2  0
 11 12  1  0
 12 13  2  0
 13 14  1  0
 14 15  2  0
 10 15  1  0
 13 16  1  0
 16 17  1  0
 16 18  2  0
 16 19  2  0
  8 20  2  0
 20 21  1  0
 21 22  2  0
  6 22  1  0
 22 23  1  0
M  END
>  <pIC50>  (233) 
7.39

>  <chembl_id>  (233) 
CHEMBL3648101

>  <canonical_smiles>  (233) 
CC(O)CSc1nc(Nc2ccc(cc2)S(=N)(=O)C)ncc1Br

$$$$
CHEMBL3648102
     RDKit          2D

 24 25  0  0  0  0  0  0  0  0999 V2000
    0.7145    1.2375    0.0000 C   0  0  0  0  0  0  0  0  0  0  0  0
    1.4289    0.8250    0.0000 C   0  0  0  0  0  0  0  0  0  0  0  0
    2.1434    1.2375    0.0000 O   0  0  0  0  0  0  0  0  0  0  0  0
    1.4289    0.0000    0.0000 C   0  0  0  0  0  0  0  0  0  0  0  0
    0.7145   -0.4125    0.0000 C   0  0  0  0  0  0  0  0  0  0  0  0
    2.1434   -0.4125    0.0000 S   0  0  0  0  0  0  0  0  0  0  0  0
    2.1434   -1.2375    0.0000 C   0  0  0  0  0  0  0  0  0  0  0  0
    2.8579   -1.6500    0.0000 N   0  0  0  0  0  0  0  0  0  0  0  0
    2.8579   -2.4750    0.0000 C   0  0  0  0  0  0  0  0  0  0  0  0
    3.5724   -2.8875    0.0000 N   0  0  0  0  0  0  0  0  0  0  0  0
    3.5724   -3.7125    0.0000 C   0  0  0  0  0  0  0  0  0  0  0  0
    4.2868   -4.1250    0.0000 C   0  0  0  0  0  0  0  0  0  0  0  0
    4.2868   -4.9500    0.0000 C   0  0  0  0  0  0  0  0  0  0  0  0
    3.5724   -5.3625    0.0000 C   0  0  0  0  0  0  0  0  0  0  0  0
    2.8579   -4.9500    0.0000 C   0  0  0  0  0  0  0  0  0  0  0  0
    2.8579   -4.1250    0.0000 C   0  0  0  0  0  0  0  0  0  0  0  0
    3.5724   -6.1875    0.0000 S   0  0  0  0  0  0  0  0  0  0  0  0
    3.5724   -7.0125    0.0000 N   0  0  0  0  0  0  0  0  0  0  0  0
    2.7474   -6.1875    0.0000 O   0  0  0  0  0  0  0  0  0  0  0  0
    4.3974   -6.1875    0.0000 C   0  0  0  0  0  0  0  0  0  0  0  0
    2.1434   -2.8875    0.0000 N   0  0  0  0  0  0  0  0  0  0  0  0
    1.4289   -2.4750    0.0000 C   0  0  0  0  0  0  0  0  0  0  0  0
    1.4289   -1.6500    0.0000 C   0  0  0  0  0  0  0  0  0  0  0  0
    0.7145   -1.2375    0.0000 Br  0  0  0  0  0  0  0  0  0  0  0  0
  1  2  1  0
  2  3  1  0
  2  4  1  0
  4  5  1  0
  4  6  1  0
  6  7  1  0
  7  8  2  0
  8  9  1  0
  9 10  1  0
 10 11  1  0
 11 12  2  0
 12 13  1  0
 13 14  2  0
 14 15  1  0
 15 16  2  0
 11 16  1  0
 14 17  1  0
 17 18  1  0
 17 19  2  0
 17 20  2  0
  9 21  2  0
 21 22  1  0
 22 23  2  0
  7 23  1  0
 23 24  1  0
M  END
>  <pIC50>  (234) 
8.10

>  <chembl_id>  (234) 
CHEMBL3648102

>  <canonical_smiles>  (234) 
CC(O)C(C)Sc1nc(Nc2ccc(cc2)S(=N)(=O)C)ncc1Br

$$$$
CHEMBL3648103
     RDKit          2D

 25 26  0  0  0  0  0  0  0  0999 V2000
    0.0000    0.0000    0.0000 C   0  0  0  0  0  0  0  0  0  0  0  0
    0.7145   -0.4125    0.0000 C   0  0  0  0  0  0  0  0  0  0  0  0
    1.4289    0.0000    0.0000 C   0  0  0  0  0  0  0  0  0  0  0  0
    2.1434   -0.4125    0.0000 S   0  0  0  0  0  0  0  0  0  0  0  0
    2.1434   -1.2375    0.0000 C   0  0  0  0  0  0  0  0  0  0  0  0
    2.8579   -1.6500    0.0000 N   0  0  0  0  0  0  0  0  0  0  0  0
    2.8579   -2.4750    0.0000 C   0  0  0  0  0  0  0  0  0  0  0  0
    3.5724   -2.8875    0.0000 N   0  0  0  0  0  0  0  0  0  0  0  0
    3.5724   -3.7125    0.0000 C   0  0  0  0  0  0  0  0  0  0  0  0
    4.2868   -4.1250    0.0000 C   0  0  0  0  0  0  0  0  0  0  0  0
    4.2868   -4.9500    0.0000 C   0  0  0  0  0  0  0  0  0  0  0  0
    3.5724   -5.3625    0.0000 C   0  0  0  0  0  0  0  0  0  0  0  0
    2.8579   -4.9500    0.0000 C   0  0  0  0  0  0  0  0  0  0  0  0
    2.8579   -4.1250    0.0000 C   0  0  0  0  0  0  0  0  0  0  0  0
    3.5724   -6.1875    0.0000 S   0  0  0  0  0  0  0  0  0  0  0  0
    3.5724   -7.0125    0.0000 N   0  0  0  0  0  0  0  0  0  0  0  0
    2.7474   -6.1875    0.0000 O   0  0  0  0  0  0  0  0  0  0  0  0
    4.3974   -6.1875    0.0000 C   0  0  0  0  0  0  0  0  0  0  0  0
    2.1434   -2.8875    0.0000 N   0  0  0  0  0  0  0  0  0  0  0  0
    1.4289   -2.4750    0.0000 C   0  0  0  0  0  0  0  0  0  0  0  0
    1.4289   -1.6500    0.0000 C   0  0  0  0  0  0  0  0  0  0  0  0
    0.7145   -1.2375    0.0000 Br  0  0  0  0  0  0  0  0  0  0  0  0
    1.4289    0.8250    0.0000 C   0  0  0  0  0  0  0  0  0  0  0  0
    2.1434    1.2375    0.0000 C   0  0  0  0  0  0  0  0  0  0  0  0
    0.7145    1.2375    0.0000 O   0  0  0  0  0  0  0  0  0  0  0  0
  1  2  1  0
  2  3  1  0
  3  4  1  0
  4  5  1  0
  5  6  2  0
  6  7  1  0
  7  8  1  0
  8  9  1  0
  9 10  2  0
 10 11  1  0
 11 12  2  0
 12 13  1  0
 13 14  2  0
  9 14  1  0
 12 15  1  0
 15 16  1  0
 15 17  2  0
 15 18  2  0
  7 19  2  0
 19 20  1  0
 20 21  2  0
  5 21  1  0
 21 22  1  0
  3 23  1  0
 23 24  1  0
 23 25  1  0
M  END
>  <pIC50>  (235) 
7.74

>  <chembl_id>  (235) 
CHEMBL3648103

>  <canonical_smiles>  (235) 
CCC(Sc1nc(Nc2ccc(cc2)S(=N)(=O)C)ncc1Br)C(C)O

$$$$
CHEMBL3648104
     RDKit          2D

 25 26  0  0  0  0  0  0  0  0999 V2000
    3.5724   -0.4125    0.0000 C   0  0  0  0  0  0  0  0  0  0  0  0
    2.8579    0.0000    0.0000 C   0  0  0  0  0  0  0  0  0  0  0  0
    2.1434   -0.4125    0.0000 S   0  0  0  0  0  0  0  0  0  0  0  0
    2.1434   -1.2375    0.0000 C   0  0  0  0  0  0  0  0  0  0  0  0
    2.8579   -1.6500    0.0000 N   0  0  0  0  0  0  0  0  0  0  0  0
    2.8579   -2.4750    0.0000 C   0  0  0  0  0  0  0  0  0  0  0  0
    3.5724   -2.8875    0.0000 N   0  0  0  0  0  0  0  0  0  0  0  0
    3.5724   -3.7125    0.0000 C   0  0  0  0  0  0  0  0  0  0  0  0
    4.2868   -4.1250    0.0000 C   0  0  0  0  0  0  0  0  0  0  0  0
    4.2868   -4.9500    0.0000 C   0  0  0  0  0  0  0  0  0  0  0  0
    3.5724   -5.3625    0.0000 C   0  0  0  0  0  0  0  0  0  0  0  0
    2.8579   -4.9500    0.0000 C   0  0  0  0  0  0  0  0  0  0  0  0
    2.8579   -4.1250    0.0000 C   0  0  0  0  0  0  0  0  0  0  0  0
    3.5724   -6.1875    0.0000 S   0  0  0  0  0  0  0  0  0  0  0  0
    3.5724   -7.0125    0.0000 N   0  0  0  0  0  0  0  0  0  0  0  0
    4.3974   -6.1875    0.0000 O   0  0  0  0  0  0  0  0  0  0  0  0
    2.7474   -6.1875    0.0000 C   0  0  0  0  0  0  0  0  0  0  0  0
    2.1434   -2.8875    0.0000 N   0  0  0  0  0  0  0  0  0  0  0  0
    1.4289   -2.4750    0.0000 C   0  0  0  0  0  0  0  0  0  0  0  0
    1.4289   -1.6500    0.0000 C   0  0  0  0  0  0  0  0  0  0  0  0
    0.7145   -1.2375    0.0000 Br  0  0  0  0  0  0  0  0  0  0  0  0
    2.8579    0.8250    0.0000 C   0  0  0  0  0  0  0  0  0  0  0  0
    2.8579    1.6500    0.0000 C   0  0  0  0  0  0  0  0  0  0  0  0
    3.6829    0.8250    0.0000 C   0  0  0  0  0  0  0  0  0  0  0  0
    2.0329    0.8250    0.0000 O   0  0  0  0  0  0  0  0  0  0  0  0
  1  2  1  0
  2  3  1  0
  3  4  1  0
  4  5  2  0
  5  6  1  0
  6  7  1  0
  7  8  1  0
  8  9  2  0
  9 10  1  0
 10 11  2  0
 11 12  1  0
 12 13  2  0
  8 13  1  0
 11 14  1  0
 14 15  1  0
 14 16  2  0
 14 17  2  0
  6 18  2  0
 18 19  1  0
 19 20  2  0
  4 20  1  0
 20 21  1  0
  2 22  1  0
 22 23  1  0
 22 24  1  0
 22 25  1  0
M  END
>  <pIC50>  (236) 
7.96

>  <chembl_id>  (236) 
CHEMBL3648104

>  <canonical_smiles>  (236) 
CC(Sc1nc(Nc2ccc(cc2)S(=N)(=O)C)ncc1Br)C(C)(C)O

$$$$
CHEMBL3648105
     RDKit          2D

 26 27  0  0  0  0  0  0  0  0999 V2000
    0.0000    0.0000    0.0000 C   0  0  0  0  0  0  0  0  0  0  0  0
    0.7145   -0.4125    0.0000 C   0  0  0  0  0  0  0  0  0  0  0  0
    1.4289    0.0000    0.0000 C   0  0  0  0  0  0  0  0  0  0  0  0
    2.1434   -0.4125    0.0000 S   0  0  0  0  0  0  0  0  0  0  0  0
    2.1434   -1.2375    0.0000 C   0  0  0  0  0  0  0  0  0  0  0  0
    2.8579   -1.6500    0.0000 N   0  0  0  0  0  0  0  0  0  0  0  0
    2.8579   -2.4750    0.0000 C   0  0  0  0  0  0  0  0  0  0  0  0
    3.5724   -2.8875    0.0000 N   0  0  0  0  0  0  0  0  0  0  0  0
    3.5724   -3.7125    0.0000 C   0  0  0  0  0  0  0  0  0  0  0  0
    4.2868   -4.1250    0.0000 C   0  0  0  0  0  0  0  0  0  0  0  0
    4.2868   -4.9500    0.0000 C   0  0  0  0  0  0  0  0  0  0  0  0
    3.5724   -5.3625    0.0000 C   0  0  0  0  0  0  0  0  0  0  0  0
    2.8579   -4.9500    0.0000 C   0  0  0  0  0  0  0  0  0  0  0  0
    2.8579   -4.1250    0.0000 C   0  0  0  0  0  0  0  0  0  0  0  0
    3.5724   -6.1875    0.0000 S   0  0  0  0  0  0  0  0  0  0  0  0
    3.5724   -7.0125    0.0000 N   0  0  0  0  0  0  0  0  0  0  0  0
    2.7474   -6.1875    0.0000 O   0  0  0  0  0  0  0  0  0  0  0  0
    4.3974   -6.1875    0.0000 C   0  0  0  0  0  0  0  0  0  0  0  0
    2.1434   -2.8875    0.0000 N   0  0  0  0  0  0  0  0  0  0  0  0
    1.4289   -2.4750    0.0000 C   0  0  0  0  0  0  0  0  0  0  0  0
    1.4289   -1.6500    0.0000 C   0  0  0  0  0  0  0  0  0  0  0  0
    0.7145   -1.2375    0.0000 Br  0  0  0  0  0  0  0  0  0  0  0  0
    1.4289    0.8250    0.0000 C   0  0  0  0  0  0  0  0  0  0  0  0
    0.6039    0.8250    0.0000 C   0  0  0  0  0  0  0  0  0  0  0  0
    2.2539    0.8250    0.0000 C   0  0  0  0  0  0  0  0  0  0  0  0
    1.4289    1.6500    0.0000 O   0  0  0  0  0  0  0  0  0  0  0  0
  1  2  1  0
  2  3  1  0
  3  4  1  0
  4  5  1  0
  5  6  2  0
  6  7  1  0
  7  8  1  0
  8  9  1  0
  9 10  2  0
 10 11  1  0
 11 12  2  0
 12 13  1  0
 13 14  2  0
  9 14  1  0
 12 15  1  0
 15 16  1  0
 15 17  2  0
 15 18  2  0
  7 19  2  0
 19 20  1  0
 20 21  2  0
  5 21  1  0
 21 22  1  0
  3 23  1  0
 23 24  1  0
 23 25  1  0
 23 26  1  0
M  END
>  <pIC50>  (237) 
7.57

>  <chembl_id>  (237) 
CHEMBL3648105

>  <canonical_smiles>  (237) 
CCC(Sc1nc(Nc2ccc(cc2)S(=N)(=O)C)ncc1Br)C(C)(C)O

$$$$
CHEMBL3648106
     RDKit          2D

 23 24  0  0  0  0  0  0  0  0999 V2000
    0.7145   -0.4125    0.0000 C   0  0  0  0  0  0  0  0  0  0  0  0
    1.4289    0.0000    0.0000 C   0  0  0  0  0  0  0  0  0  0  0  0
    1.4289    0.8250    0.0000 C   0  0  0  0  0  0  0  0  0  0  0  0
    0.7145    1.2375    0.0000 O   0  0  0  0  0  0  0  0  0  0  0  0
    2.1434   -0.4125    0.0000 S   0  0  0  0  0  0  0  0  0  0  0  0
    2.1434   -1.2375    0.0000 C   0  0  0  0  0  0  0  0  0  0  0  0
    2.8579   -1.6500    0.0000 N   0  0  0  0  0  0  0  0  0  0  0  0
    2.8579   -2.4750    0.0000 C   0  0  0  0  0  0  0  0  0  0  0  0
    3.5724   -2.8875    0.0000 N   0  0  0  0  0  0  0  0  0  0  0  0
    3.5724   -3.7125    0.0000 C   0  0  0  0  0  0  0  0  0  0  0  0
    4.2868   -4.1250    0.0000 C   0  0  0  0  0  0  0  0  0  0  0  0
    4.2868   -4.9500    0.0000 C   0  0  0  0  0  0  0  0  0  0  0  0
    3.5724   -5.3625    0.0000 C   0  0  0  0  0  0  0  0  0  0  0  0
    2.8579   -4.9500    0.0000 C   0  0  0  0  0  0  0  0  0  0  0  0
    2.8579   -4.1250    0.0000 C   0  0  0  0  0  0  0  0  0  0  0  0
    3.5724   -6.1875    0.0000 S   0  0  0  0  0  0  0  0  0  0  0  0
    3.5724   -7.0125    0.0000 N   0  0  0  0  0  0  0  0  0  0  0  0
    2.7474   -6.1875    0.0000 O   0  0  0  0  0  0  0  0  0  0  0  0
    4.3974   -6.1875    0.0000 C   0  0  0  0  0  0  0  0  0  0  0  0
    2.1434   -2.8875    0.0000 N   0  0  0  0  0  0  0  0  0  0  0  0
    1.4289   -2.4750    0.0000 C   0  0  0  0  0  0  0  0  0  0  0  0
    1.4289   -1.6500    0.0000 C   0  0  0  0  0  0  0  0  0  0  0  0
    0.7145   -1.2375    0.0000 Br  0  0  0  0  0  0  0  0  0  0  0  0
  1  2  1  0
  2  3  1  0
  3  4  1  0
  2  5  1  0
  5  6  1  0
  6  7  2  0
  7  8  1  0
  8  9  1  0
  9 10  1  0
 10 11  2  0
 11 12  1  0
 12 13  2  0
 13 14  1  0
 14 15  2  0
 10 15  1  0
 13 16  1  0
 16 17  1  0
 16 18  2  0
 16 19  2  0
  8 20  2  0
 20 21  1  0
 21 22  2  0
  6 22  1  0
 22 23  1  0
M  END
>  <pIC50>  (238) 
8.40

>  <chembl_id>  (238) 
CHEMBL3648106

>  <canonical_smiles>  (238) 
CC(CO)Sc1nc(Nc2ccc(cc2)S(=N)(=O)C)ncc1Br

$$$$
CHEMBL3648107
     RDKit          2D

 27 28  0  0  1  0  0  0  0  0999 V2000
    3.5724   -0.4125    0.0000 C   0  0  0  0  0  0  0  0  0  0  0  0
    2.8579    0.0000    0.0000 C   0  0  0  0  0  0  0  0  0  0  0  0
    2.1434   -0.4125    0.0000 N   0  0  0  0  0  0  0  0  0  0  0  0
    2.1434   -1.2375    0.0000 C   0  0  0  0  0  0  0  0  0  0  0  0
    2.8579   -1.6500    0.0000 N   0  0  0  0  0  0  0  0  0  0  0  0
    2.8579   -2.4750    0.0000 C   0  0  0  0  0  0  0  0  0  0  0  0
    3.5724   -2.8875    0.0000 N   0  0  0  0  0  0  0  0  0  0  0  0
    3.5724   -3.7125    0.0000 C   0  0  0  0  0  0  0  0  0  0  0  0
    4.2868   -4.1250    0.0000 C   0  0  0  0  0  0  0  0  0  0  0  0
    4.2868   -4.9500    0.0000 C   0  0  0  0  0  0  0  0  0  0  0  0
    3.5724   -5.3625    0.0000 C   0  0  0  0  0  0  0  0  0  0  0  0
    2.8579   -4.9500    0.0000 C   0  0  0  0  0  0  0  0  0  0  0  0
    2.8579   -4.1250    0.0000 C   0  0  0  0  0  0  0  0  0  0  0  0
    3.5724   -6.1875    0.0000 S   0  0  0  0  0  0  0  0  0  0  0  0
    4.3974   -6.1875    0.0000 N   0  0  0  0  0  0  0  0  0  0  0  0
    2.7474   -6.1875    0.0000 O   0  0  0  0  0  0  0  0  0  0  0  0
    3.5724   -7.0125    0.0000 C   0  0  0  0  0  0  0  0  0  0  0  0
    2.8579   -7.4250    0.0000 C   0  0  0  0  0  0  0  0  0  0  0  0
    2.8579   -8.2500    0.0000 O   0  0  0  0  0  0  0  0  0  0  0  0
    2.1434   -2.8875    0.0000 N   0  0  0  0  0  0  0  0  0  0  0  0
    1.4289   -2.4750    0.0000 C   0  0  0  0  0  0  0  0  0  0  0  0
    1.4289   -1.6500    0.0000 C   0  0  0  0  0  0  0  0  0  0  0  0
    0.7145   -1.2375    0.0000 Br  0  0  0  0  0  0  0  0  0  0  0  0
    2.8579    0.8250    0.0000 C   0  0  0  0  0  0  0  0  0  0  0  0
    2.8579    1.6500    0.0000 C   0  0  0  0  0  0  0  0  0  0  0  0
    3.6829    0.8250    0.0000 C   0  0  0  0  0  0  0  0  0  0  0  0
    2.0329    0.8250    0.0000 O   0  0  0  0  0  0  0  0  0  0  0  0
  2  1  1  1
  2  3  1  0
  3  4  1  0
  4  5  2  0
  5  6  1  0
  6  7  1  0
  7  8  1  0
  8  9  2  0
  9 10  1  0
 10 11  2  0
 11 12  1  0
 12 13  2  0
  8 13  1  0
 11 14  1  0
 14 15  2  0
 14 16  2  0
 14 17  1  0
 17 18  1  0
 18 19  1  0
  6 20  2  0
 20 21  1  0
 21 22  2  0
  4 22  1  0
 22 23  1  0
  2 24  1  0
 24 25  1  0
 24 26  1  0
 24 27  1  0
M  END
>  <pIC50>  (239) 
8.40

>  <chembl_id>  (239) 
CHEMBL3648107

>  <canonical_smiles>  (239) 
C[C@@H](Nc1nc(Nc2ccc(cc2)S(=N)(=O)CCO)ncc1Br)C(C)(C)O

$$$$
CHEMBL3648108
     RDKit          2D

 27 28  0  0  1  0  0  0  0  0999 V2000
    3.5724   -0.4125    0.0000 C   0  0  0  0  0  0  0  0  0  0  0  0
    2.8579    0.0000    0.0000 C   0  0  0  0  0  0  0  0  0  0  0  0
    2.1434   -0.4125    0.0000 N   0  0  0  0  0  0  0  0  0  0  0  0
    2.1434   -1.2375    0.0000 C   0  0  0  0  0  0  0  0  0  0  0  0
    2.8579   -1.6500    0.0000 N   0  0  0  0  0  0  0  0  0  0  0  0
    2.8579   -2.4750    0.0000 C   0  0  0  0  0  0  0  0  0  0  0  0
    3.5724   -2.8875    0.0000 N   0  0  0  0  0  0  0  0  0  0  0  0
    3.5724   -3.7125    0.0000 C   0  0  0  0  0  0  0  0  0  0  0  0
    4.2868   -4.1250    0.0000 C   0  0  0  0  0  0  0  0  0  0  0  0
    4.2868   -4.9500    0.0000 C   0  0  0  0  0  0  0  0  0  0  0  0
    3.5724   -5.3625    0.0000 C   0  0  0  0  0  0  0  0  0  0  0  0
    2.8579   -4.9500    0.0000 C   0  0  0  0  0  0  0  0  0  0  0  0
    2.8579   -4.1250    0.0000 C   0  0  0  0  0  0  0  0  0  0  0  0
    3.5724   -6.1875    0.0000 S   0  0  0  0  0  0  0  0  0  0  0  0
    4.3974   -6.1875    0.0000 N   0  0  0  0  0  0  0  0  0  0  0  0
    2.7474   -6.1875    0.0000 O   0  0  0  0  0  0  0  0  0  0  0  0
    3.5724   -7.0125    0.0000 C   0  0  0  0  0  0  0  0  0  0  0  0
    2.8579   -7.4250    0.0000 C   0  0  0  0  0  0  0  0  0  0  0  0
    2.8579   -8.2500    0.0000 O   0  0  0  0  0  0  0  0  0  0  0  0
    2.1434   -2.8875    0.0000 N   0  0  0  0  0  0  0  0  0  0  0  0
    1.4289   -2.4750    0.0000 C   0  0  0  0  0  0  0  0  0  0  0  0
    1.4289   -1.6500    0.0000 C   0  0  0  0  0  0  0  0  0  0  0  0
    0.7145   -1.2375    0.0000 Br  0  0  0  0  0  0  0  0  0  0  0  0
    2.8579    0.8250    0.0000 C   0  0  0  0  0  0  0  0  0  0  0  0
    2.8579    1.6500    0.0000 C   0  0  0  0  0  0  0  0  0  0  0  0
    3.6829    0.8250    0.0000 C   0  0  0  0  0  0  0  0  0  0  0  0
    2.0329    0.8250    0.0000 O   0  0  0  0  0  0  0  0  0  0  0  0
  2  1  1  6
  2  3  1  0
  3  4  1  0
  4  5  2  0
  5  6  1  0
  6  7  1  0
  7  8  1  0
  8  9  2  0
  9 10  1  0
 10 11  2  0
 11 12  1  0
 12 13  2  0
  8 13  1  0
 11 14  1  0
 14 15  2  0
 14 16  2  0
 14 17  1  0
 17 18  1  0
 18 19  1  0
  6 20  2  0
 20 21  1  0
 21 22  2  0
  4 22  1  0
 22 23  1  0
  2 24  1  0
 24 25  1  0
 24 26  1  0
 24 27  1  0
M  END
>  <pIC50>  (240) 
8.40

>  <chembl_id>  (240) 
CHEMBL3648108

>  <canonical_smiles>  (240) 
C[C@H](Nc1nc(Nc2ccc(cc2)S(=N)(=O)CCO)ncc1Br)C(C)(C)O

$$$$
CHEMBL3648109
     RDKit          2D

 26 27  0  0  1  0  0  0  0  0999 V2000
    0.7145    1.2375    0.0000 C   0  0  0  0  0  0  0  0  0  0  0  0
    1.4289    0.8250    0.0000 C   0  0  0  0  0  0  0  0  0  0  0  0
    2.1434    1.2375    0.0000 O   0  0  0  0  0  0  0  0  0  0  0  0
    1.4289    0.0000    0.0000 C   0  0  0  0  0  0  0  0  0  0  0  0
    0.7145   -0.4125    0.0000 C   0  0  0  0  0  0  0  0  0  0  0  0
    2.1434   -0.4125    0.0000 N   0  0  0  0  0  0  0  0  0  0  0  0
    2.1434   -1.2375    0.0000 C   0  0  0  0  0  0  0  0  0  0  0  0
    2.8579   -1.6500    0.0000 N   0  0  0  0  0  0  0  0  0  0  0  0
    2.8579   -2.4750    0.0000 C   0  0  0  0  0  0  0  0  0  0  0  0
    3.5724   -2.8875    0.0000 N   0  0  0  0  0  0  0  0  0  0  0  0
    3.5724   -3.7125    0.0000 C   0  0  0  0  0  0  0  0  0  0  0  0
    4.2868   -4.1250    0.0000 C   0  0  0  0  0  0  0  0  0  0  0  0
    4.2868   -4.9500    0.0000 C   0  0  0  0  0  0  0  0  0  0  0  0
    3.5724   -5.3625    0.0000 C   0  0  0  0  0  0  0  0  0  0  0  0
    2.8579   -4.9500    0.0000 C   0  0  0  0  0  0  0  0  0  0  0  0
    2.8579   -4.1250    0.0000 C   0  0  0  0  0  0  0  0  0  0  0  0
    3.5724   -6.1875    0.0000 S   0  0  0  0  0  0  0  0  0  0  0  0
    2.7474   -6.1875    0.0000 N   0  0  0  0  0  0  0  0  0  0  0  0
    4.3974   -6.1875    0.0000 O   0  0  0  0  0  0  0  0  0  0  0  0
    3.5724   -7.0125    0.0000 C   0  0  0  0  0  0  0  0  0  0  0  0
    2.8579   -7.4250    0.0000 C   0  0  0  0  0  0  0  0  0  0  0  0
    2.8579   -8.2500    0.0000 O   0  0  0  0  0  0  0  0  0  0  0  0
    2.1434   -2.8875    0.0000 N   0  0  0  0  0  0  0  0  0  0  0  0
    1.4289   -2.4750    0.0000 C   0  0  0  0  0  0  0  0  0  0  0  0
    1.4289   -1.6500    0.0000 C   0  0  0  0  0  0  0  0  0  0  0  0
    0.7145   -1.2375    0.0000 Br  0  0  0  0  0  0  0  0  0  0  0  0
  2  1  1  1
  2  3  1  0
  2  4  1  0
  4  5  1  6
  4  6  1  0
  6  7  1  0
  7  8  2  0
  8  9  1  0
  9 10  1  0
 10 11  1  0
 11 12  2  0
 12 13  1  0
 13 14  2  0
 14 15  1  0
 15 16  2  0
 11 16  1  0
 14 17  1  0
 17 18  2  0
 17 19  2  0
 17 20  1  0
 20 21  1  0
 21 22  1  0
  9 23  2  0
 23 24  1  0
 24 25  2  0
  7 25  1  0
 25 26  1  0
M  END
>  <pIC50>  (241) 
8.52

>  <chembl_id>  (241) 
CHEMBL3648109

>  <canonical_smiles>  (241) 
C[C@@H](O)[C@@H](C)Nc1nc(Nc2ccc(cc2)S(=N)(=O)CCO)ncc1Br

$$$$
CHEMBL3648111
     RDKit          2D

 26 27  0  0  1  0  0  0  0  0999 V2000
    2.8579    0.0000    0.0000 C   0  0  0  0  0  0  0  0  0  0  0  0
    2.1434   -0.4125    0.0000 O   0  0  0  0  0  0  0  0  0  0  0  0
    2.1434   -1.2375    0.0000 C   0  0  0  0  0  0  0  0  0  0  0  0
    2.8579   -1.6500    0.0000 C   0  0  0  0  0  0  0  0  0  0  0  0
    2.8579   -2.4750    0.0000 C   0  0  0  0  0  0  0  0  0  0  0  0
    3.5724   -2.8875    0.0000 N   0  0  0  0  0  0  0  0  0  0  0  0
    3.5724   -3.7125    0.0000 C   0  0  0  0  0  0  0  0  0  0  0  0
    4.2868   -4.1250    0.0000 N   0  0  0  0  0  0  0  0  0  0  0  0
    4.2868   -4.9500    0.0000 C   0  0  0  0  0  0  0  0  0  0  0  0
    3.5724   -5.3625    0.0000 C   0  0  0  0  0  0  0  0  0  0  0  0
    3.5724   -6.1875    0.0000 Br  0  0  0  0  0  0  0  0  0  0  0  0
    2.8579   -4.9500    0.0000 C   0  0  0  0  0  0  0  0  0  0  0  0
    2.1434   -5.3625    0.0000 N   0  0  0  0  0  0  0  0  0  0  0  0
    2.1434   -6.1875    0.0000 C   0  0  0  0  0  0  0  0  0  0  0  0
    2.8579   -6.6000    0.0000 C   0  0  0  0  0  0  0  0  0  0  0  0
    1.4289   -6.6000    0.0000 C   0  0  0  0  0  0  0  0  0  0  0  0
    1.4289   -7.4250    0.0000 C   0  0  0  0  0  0  0  0  0  0  0  0
    0.7145   -6.1875    0.0000 O   0  0  0  0  0  0  0  0  0  0  0  0
    2.8579   -4.1250    0.0000 N   0  0  0  0  0  0  0  0  0  0  0  0
    2.1434   -2.8875    0.0000 C   0  0  0  0  0  0  0  0  0  0  0  0
    1.4289   -2.4750    0.0000 C   0  0  0  0  0  0  0  0  0  0  0  0
    1.4289   -1.6500    0.0000 C   0  0  0  0  0  0  0  0  0  0  0  0
    0.7145   -1.2375    0.0000 S   0  0  0  0  0  0  0  0  0  0  0  0
    0.0000   -0.8250    0.0000 N   0  0  0  0  0  0  0  0  0  0  0  0
    1.1270   -0.5230    0.0000 O   0  0  0  0  0  0  0  0  0  0  0  0
    0.3020   -1.9520    0.0000 C   0  0  0  0  0  0  0  0  0  0  0  0
  1  2  1  0
  2  3  1  0
  3  4  2  0
  4  5  1  0
  5  6  1  0
  6  7  1  0
  7  8  2  0
  8  9  1  0
  9 10  2  0
 10 11  1  0
 10 12  1  0
 12 13  1  0
 14 13  1  0
 14 15  1  6
 14 16  1  0
 16 17  1  1
 16 18  1  0
 12 19  2  0
  7 19  1  0
  5 20  2  0
 20 21  1  0
 21 22  2  0
  3 22  1  0
 22 23  1  0
 23 24  1  0
 23 25  2  0
 23 26  2  0
M  END
>  <pIC50>  (242) 
8.40

>  <chembl_id>  (242) 
CHEMBL3648111

>  <canonical_smiles>  (242) 
COc1cc(Nc2ncc(Br)c(N[C@H](C)[C@@H](C)O)n2)ccc1S(=N)(=O)C

$$$$
CHEMBL3648113
     RDKit          2D

 27 28  0  0  1  0  0  0  0  0999 V2000
    2.8579    0.0000    0.0000 C   0  0  0  0  0  0  0  0  0  0  0  0
    2.1434   -0.4125    0.0000 O   0  0  0  0  0  0  0  0  0  0  0  0
    2.1434   -1.2375    0.0000 C   0  0  0  0  0  0  0  0  0  0  0  0
    2.8579   -1.6500    0.0000 C   0  0  0  0  0  0  0  0  0  0  0  0
    2.8579   -2.4750    0.0000 C   0  0  0  0  0  0  0  0  0  0  0  0
    3.5724   -2.8875    0.0000 N   0  0  0  0  0  0  0  0  0  0  0  0
    3.5724   -3.7125    0.0000 C   0  0  0  0  0  0  0  0  0  0  0  0
    4.2868   -4.1250    0.0000 N   0  0  0  0  0  0  0  0  0  0  0  0
    4.2868   -4.9500    0.0000 C   0  0  0  0  0  0  0  0  0  0  0  0
    3.5724   -5.3625    0.0000 C   0  0  0  0  0  0  0  0  0  0  0  0
    3.5724   -6.1875    0.0000 Br  0  0  0  0  0  0  0  0  0  0  0  0
    2.8579   -4.9500    0.0000 C   0  0  0  0  0  0  0  0  0  0  0  0
    2.1434   -5.3625    0.0000 N   0  0  0  0  0  0  0  0  0  0  0  0
    2.1434   -6.1875    0.0000 C   0  0  0  0  0  0  0  0  0  0  0  0
    2.8579   -6.6000    0.0000 C   0  0  0  0  0  0  0  0  0  0  0  0
    1.4289   -6.6000    0.0000 C   0  0  0  0  0  0  0  0  0  0  0  0
    1.4289   -7.4250    0.0000 C   0  0  0  0  0  0  0  0  0  0  0  0
    0.7145   -6.1875    0.0000 O   0  0  0  0  0  0  0  0  0  0  0  0
    2.8579   -4.1250    0.0000 N   0  0  0  0  0  0  0  0  0  0  0  0
    2.1434   -2.8875    0.0000 C   0  0  0  0  0  0  0  0  0  0  0  0
    1.4289   -2.4750    0.0000 C   0  0  0  0  0  0  0  0  0  0  0  0
    1.4289   -1.6500    0.0000 C   0  0  0  0  0  0  0  0  0  0  0  0
    0.7145   -1.2375    0.0000 S   0  0  0  0  0  0  0  0  0  0  0  0
    0.3020   -1.9520    0.0000 O   0  0  0  0  0  0  0  0  0  0  0  0
    0.0000   -0.8250    0.0000 N   0  0  0  0  0  0  0  0  0  0  0  0
   -0.7145   -1.2375    0.0000 C   0  0  0  0  0  0  0  0  0  0  0  0
    1.1270   -0.5230    0.0000 C   0  0  0  0  0  0  0  0  0  0  0  0
  1  2  1  0
  2  3  1  0
  3  4  2  0
  4  5  1  0
  5  6  1  0
  6  7  1  0
  7  8  2  0
  8  9  1  0
  9 10  2  0
 10 11  1  0
 10 12  1  0
 12 13  1  0
 14 13  1  0
 14 15  1  6
 14 16  1  0
 16 17  1  1
 16 18  1  0
 12 19  2  0
  7 19  1  0
  5 20  2  0
 20 21  1  0
 21 22  2  0
  3 22  1  0
 22 23  1  0
 23 24  2  0
 23 25  1  0
 25 26  2  0
 23 27  1  0
M  END
>  <pIC50>  (243) 
8.40

>  <chembl_id>  (243) 
CHEMBL3648113

>  <canonical_smiles>  (243) 
COc1cc(Nc2ncc(Br)c(N[C@H](C)[C@@H](C)O)n2)ccc1S(=O)(=NC)C

$$$$
CHEMBL3648114
     RDKit          2D

 27 28  0  0  1  0  0  0  0  0999 V2000
    2.8579    0.0000    0.0000 C   0  0  0  0  0  0  0  0  0  0  0  0
    2.1434   -0.4125    0.0000 O   0  0  0  0  0  0  0  0  0  0  0  0
    2.1434   -1.2375    0.0000 C   0  0  0  0  0  0  0  0  0  0  0  0
    2.8579   -1.6500    0.0000 C   0  0  0  0  0  0  0  0  0  0  0  0
    2.8579   -2.4750    0.0000 C   0  0  0  0  0  0  0  0  0  0  0  0
    3.5724   -2.8875    0.0000 N   0  0  0  0  0  0  0  0  0  0  0  0
    3.5724   -3.7125    0.0000 C   0  0  0  0  0  0  0  0  0  0  0  0
    4.2868   -4.1250    0.0000 N   0  0  0  0  0  0  0  0  0  0  0  0
    4.2868   -4.9500    0.0000 C   0  0  0  0  0  0  0  0  0  0  0  0
    3.5724   -5.3625    0.0000 C   0  0  0  0  0  0  0  0  0  0  0  0
    3.5724   -6.1875    0.0000 Br  0  0  0  0  0  0  0  0  0  0  0  0
    2.8579   -4.9500    0.0000 C   0  0  0  0  0  0  0  0  0  0  0  0
    2.1434   -5.3625    0.0000 N   0  0  0  0  0  0  0  0  0  0  0  0
    2.1434   -6.1875    0.0000 C   0  0  0  0  0  0  0  0  0  0  0  0
    2.8579   -6.6000    0.0000 C   0  0  0  0  0  0  0  0  0  0  0  0
    1.4289   -6.6000    0.0000 C   0  0  0  0  0  0  0  0  0  0  0  0
    1.4289   -7.4250    0.0000 C   0  0  0  0  0  0  0  0  0  0  0  0
    0.7145   -6.1875    0.0000 O   0  0  0  0  0  0  0  0  0  0  0  0
    2.8579   -4.1250    0.0000 N   0  0  0  0  0  0  0  0  0  0  0  0
    2.1434   -2.8875    0.0000 C   0  0  0  0  0  0  0  0  0  0  0  0
    1.4289   -2.4750    0.0000 C   0  0  0  0  0  0  0  0  0  0  0  0
    1.4289   -1.6500    0.0000 C   0  0  0  0  0  0  0  0  0  0  0  0
    0.7145   -1.2375    0.0000 S   0  0  0  0  0  0  0  0  0  0  0  0
    0.3020   -1.9520    0.0000 O   0  0  0  0  0  0  0  0  0  0  0  0
    0.0000   -0.8250    0.0000 N   0  0  0  0  0  0  0  0  0  0  0  0
   -0.7145   -1.2375    0.0000 C   0  0  0  0  0  0  0  0  0  0  0  0
    1.1270   -0.5230    0.0000 C   0  0  0  0  0  0  0  0  0  0  0  0
  1  2  1  0
  2  3  1  0
  3  4  2  0
  4  5  1  0
  5  6  1  0
  6  7  1  0
  7  8  2  0
  8  9  1  0
  9 10  2  0
 10 11  1  0
 10 12  1  0
 12 13  1  0
 14 13  1  0
 14 15  1  6
 14 16  1  0
 16 17  1  6
 16 18  1  0
 12 19  2  0
  7 19  1  0
  5 20  2  0
 20 21  1  0
 21 22  2  0
  3 22  1  0
 22 23  1  0
 23 24  2  0
 23 25  1  0
 25 26  2  0
 23 27  1  0
M  END
>  <pIC50>  (244) 
8.22

>  <chembl_id>  (244) 
CHEMBL3648114

>  <canonical_smiles>  (244) 
COc1cc(Nc2ncc(Br)c(N[C@H](C)[C@H](C)O)n2)ccc1S(=O)(=NC)C

$$$$
CHEMBL3648116
     RDKit          2D

 25 26  0  0  1  0  0  0  0  0999 V2000
    3.5724   -0.4125    0.0000 C   0  0  0  0  0  0  0  0  0  0  0  0
    2.8579    0.0000    0.0000 C   0  0  0  0  0  0  0  0  0  0  0  0
    2.1434   -0.4125    0.0000 N   0  0  0  0  0  0  0  0  0  0  0  0
    2.1434   -1.2375    0.0000 C   0  0  0  0  0  0  0  0  0  0  0  0
    2.8579   -1.6500    0.0000 N   0  0  0  0  0  0  0  0  0  0  0  0
    2.8579   -2.4750    0.0000 C   0  0  0  0  0  0  0  0  0  0  0  0
    3.5724   -2.8875    0.0000 N   0  0  0  0  0  0  0  0  0  0  0  0
    3.5724   -3.7125    0.0000 C   0  0  0  0  0  0  0  0  0  0  0  0
    4.2868   -4.1250    0.0000 C   0  0  0  0  0  0  0  0  0  0  0  0
    4.2868   -4.9500    0.0000 C   0  0  0  0  0  0  0  0  0  0  0  0
    3.5724   -5.3625    0.0000 C   0  0  0  0  0  0  0  0  0  0  0  0
    2.8579   -4.9500    0.0000 C   0  0  0  0  0  0  0  0  0  0  0  0
    2.8579   -4.1250    0.0000 C   0  0  0  0  0  0  0  0  0  0  0  0
    3.5724   -6.1875    0.0000 S   0  0  0  0  0  0  0  0  0  0  0  0
    3.5724   -7.0125    0.0000 N   0  0  0  0  0  0  0  0  0  0  0  0
    4.3974   -6.1875    0.0000 O   0  0  0  0  0  0  0  0  0  0  0  0
    2.7474   -6.1875    0.0000 C   0  0  0  0  0  0  0  0  0  0  0  0
    2.1434   -2.8875    0.0000 N   0  0  0  0  0  0  0  0  0  0  0  0
    1.4289   -2.4750    0.0000 C   0  0  0  0  0  0  0  0  0  0  0  0
    1.4289   -1.6500    0.0000 C   0  0  0  0  0  0  0  0  0  0  0  0
    0.7145   -1.2375    0.0000 Br  0  0  0  0  0  0  0  0  0  0  0  0
    2.8579    0.8250    0.0000 C   0  0  0  0  0  0  0  0  0  0  0  0
    2.8579    1.6500    0.0000 C   0  0  0  0  0  0  0  0  0  0  0  0
    3.6829    0.8250    0.0000 C   0  0  0  0  0  0  0  0  0  0  0  0
    2.0329    0.8250    0.0000 O   0  0  0  0  0  0  0  0  0  0  0  0
  2  1  1  6
  2  3  1  0
  3  4  1  0
  4  5  2  0
  5  6  1  0
  6  7  1  0
  7  8  1  0
  8  9  2  0
  9 10  1  0
 10 11  2  0
 11 12  1  0
 12 13  2  0
  8 13  1  0
 11 14  1  0
 14 15  1  0
 14 16  2  0
 14 17  2  0
  6 18  2  0
 18 19  1  0
 19 20  2  0
  4 20  1  0
 20 21  1  0
  2 22  1  0
 22 23  1  0
 22 24  1  0
 22 25  1  0
M  END
>  <pIC50>  (245) 
8.70

>  <chembl_id>  (245) 
CHEMBL3648116

>  <canonical_smiles>  (245) 
C[C@H](Nc1nc(Nc2ccc(cc2)S(=N)(=O)C)ncc1Br)C(C)(C)O

$$$$
CHEMBL3648117
     RDKit          2D

 24 25  0  0  1  0  0  0  0  0999 V2000
    0.7145    1.2375    0.0000 C   0  0  0  0  0  0  0  0  0  0  0  0
    1.4289    0.8250    0.0000 C   0  0  0  0  0  0  0  0  0  0  0  0
    2.1434    1.2375    0.0000 O   0  0  0  0  0  0  0  0  0  0  0  0
    1.4289    0.0000    0.0000 C   0  0  0  0  0  0  0  0  0  0  0  0
    0.7145   -0.4125    0.0000 C   0  0  0  0  0  0  0  0  0  0  0  0
    2.1434   -0.4125    0.0000 N   0  0  0  0  0  0  0  0  0  0  0  0
    2.1434   -1.2375    0.0000 C   0  0  0  0  0  0  0  0  0  0  0  0
    2.8579   -1.6500    0.0000 N   0  0  0  0  0  0  0  0  0  0  0  0
    2.8579   -2.4750    0.0000 C   0  0  0  0  0  0  0  0  0  0  0  0
    3.5724   -2.8875    0.0000 N   0  0  0  0  0  0  0  0  0  0  0  0
    3.5724   -3.7125    0.0000 C   0  0  0  0  0  0  0  0  0  0  0  0
    4.2868   -4.1250    0.0000 C   0  0  0  0  0  0  0  0  0  0  0  0
    4.2868   -4.9500    0.0000 C   0  0  0  0  0  0  0  0  0  0  0  0
    3.5724   -5.3625    0.0000 C   0  0  0  0  0  0  0  0  0  0  0  0
    2.8579   -4.9500    0.0000 C   0  0  0  0  0  0  0  0  0  0  0  0
    2.8579   -4.1250    0.0000 C   0  0  0  0  0  0  0  0  0  0  0  0
    3.5724   -6.1875    0.0000 S   0  0  0  0  0  0  0  0  0  0  0  0
    3.5724   -7.0125    0.0000 N   0  0  0  0  0  0  0  0  0  0  0  0
    2.7474   -6.1875    0.0000 O   0  0  0  0  0  0  0  0  0  0  0  0
    4.3974   -6.1875    0.0000 C   0  0  0  0  0  0  0  0  0  0  0  0
    2.1434   -2.8875    0.0000 N   0  0  0  0  0  0  0  0  0  0  0  0
    1.4289   -2.4750    0.0000 C   0  0  0  0  0  0  0  0  0  0  0  0
    1.4289   -1.6500    0.0000 C   0  0  0  0  0  0  0  0  0  0  0  0
    0.7145   -1.2375    0.0000 Br  0  0  0  0  0  0  0  0  0  0  0  0
  2  1  1  6
  2  3  1  0
  2  4  1  0
  4  5  1  6
  4  6  1  0
  6  7  1  0
  7  8  2  0
  8  9  1  0
  9 10  1  0
 10 11  1  0
 11 12  2  0
 12 13  1  0
 13 14  2  0
 14 15  1  0
 15 16  2  0
 11 16  1  0
 14 17  1  0
 17 18  1  0
 17 19  2  0
 17 20  2  0
  9 21  2  0
 21 22  1  0
 22 23  2  0
  7 23  1  0
 23 24  1  0
M  END
>  <pIC50>  (246) 
8.70

>  <chembl_id>  (246) 
CHEMBL3648117

>  <canonical_smiles>  (246) 
C[C@H](O)[C@@H](C)Nc1nc(Nc2ccc(cc2)S(=N)(=O)C)ncc1Br

$$$$
CHEMBL3648118
     RDKit          2D

 26 27  0  0  1  0  0  0  0  0999 V2000
    0.0000   -4.9500    0.0000 C   0  0  0  0  0  0  0  0  0  0  0  0
    0.7145   -5.3625    0.0000 O   0  0  0  0  0  0  0  0  0  0  0  0
    1.4289   -4.9500    0.0000 C   0  0  0  0  0  0  0  0  0  0  0  0
    2.1434   -5.3625    0.0000 C   0  0  0  0  0  0  0  0  0  0  0  0
    2.1434   -6.1875    0.0000 N   0  0  0  0  0  0  0  0  0  0  0  0
    2.8579   -6.6000    0.0000 C   0  0  0  0  0  0  0  0  0  0  0  0
    3.5724   -6.1875    0.0000 N   0  0  0  0  0  0  0  0  0  0  0  0
    4.2868   -6.6000    0.0000 C   0  0  0  0  0  0  0  0  0  0  0  0
    5.0013   -6.1875    0.0000 N   0  0  0  0  0  0  0  0  0  0  0  0
    5.7158   -6.6000    0.0000 C   0  0  0  0  0  0  0  0  0  0  0  0
    6.4302   -6.1875    0.0000 C   0  0  0  0  0  0  0  0  0  0  0  0
    7.1447   -6.6000    0.0000 C   0  0  0  0  0  0  0  0  0  0  0  0
    7.1447   -7.4250    0.0000 C   0  0  0  0  0  0  0  0  0  0  0  0
    6.4302   -7.8375    0.0000 C   0  0  0  0  0  0  0  0  0  0  0  0
    5.7158   -7.4250    0.0000 C   0  0  0  0  0  0  0  0  0  0  0  0
    7.8592   -7.8375    0.0000 S   0  0  0  0  0  0  0  0  0  0  0  0
    8.5737   -8.2500    0.0000 N   0  0  0  0  0  0  0  0  0  0  0  0
    7.4467   -8.5520    0.0000 O   0  0  0  0  0  0  0  0  0  0  0  0
    8.2717   -7.1230    0.0000 C   0  0  0  0  0  0  0  0  0  0  0  0
    4.2868   -7.4250    0.0000 N   0  0  0  0  0  0  0  0  0  0  0  0
    3.5724   -7.8375    0.0000 C   0  0  0  0  0  0  0  0  0  0  0  0
    2.8579   -7.4250    0.0000 C   0  0  0  0  0  0  0  0  0  0  0  0
    2.1434   -7.8375    0.0000 Br  0  0  0  0  0  0  0  0  0  0  0  0
    2.8579   -4.9500    0.0000 C   0  0  0  0  0  0  0  0  0  0  0  0
    3.5724   -5.3625    0.0000 C   0  0  0  0  0  0  0  0  0  0  0  0
    2.8579   -4.1250    0.0000 O   0  0  0  0  0  0  0  0  0  0  0  0
  1  2  1  0
  2  3  1  0
  4  3  1  6
  4  5  1  0
  5  6  1  0
  6  7  2  0
  7  8  1  0
  8  9  1  0
  9 10  1  0
 10 11  2  0
 11 12  1  0
 12 13  2  0
 13 14  1  0
 14 15  2  0
 10 15  1  0
 13 16  1  0
 16 17  1  0
 16 18  2  0
 16 19  2  0
  8 20  2  0
 20 21  1  0
 21 22  2  0
  6 22  1  0
 22 23  1  0
  4 24  1  0
 24 25  1  6
 24 26  1  0
M  END
>  <pIC50>  (247) 
8.40

>  <chembl_id>  (247) 
CHEMBL3648118

>  <canonical_smiles>  (247) 
COC[C@@H](Nc1nc(Nc2ccc(cc2)S(=N)(=O)C)ncc1Br)[C@@H](C)O

$$$$
CHEMBL3648119
     RDKit          2D

 26 27  0  0  1  0  0  0  0  0999 V2000
    0.0000   -4.9500    0.0000 C   0  0  0  0  0  0  0  0  0  0  0  0
    0.7145   -5.3625    0.0000 O   0  0  0  0  0  0  0  0  0  0  0  0
    1.4289   -4.9500    0.0000 C   0  0  0  0  0  0  0  0  0  0  0  0
    2.1434   -5.3625    0.0000 C   0  0  0  0  0  0  0  0  0  0  0  0
    2.1434   -6.1875    0.0000 N   0  0  0  0  0  0  0  0  0  0  0  0
    2.8579   -6.6000    0.0000 C   0  0  0  0  0  0  0  0  0  0  0  0
    3.5724   -6.1875    0.0000 N   0  0  0  0  0  0  0  0  0  0  0  0
    4.2868   -6.6000    0.0000 C   0  0  0  0  0  0  0  0  0  0  0  0
    5.0013   -6.1875    0.0000 N   0  0  0  0  0  0  0  0  0  0  0  0
    5.7158   -6.6000    0.0000 C   0  0  0  0  0  0  0  0  0  0  0  0
    6.4302   -6.1875    0.0000 C   0  0  0  0  0  0  0  0  0  0  0  0
    7.1447   -6.6000    0.0000 C   0  0  0  0  0  0  0  0  0  0  0  0
    7.1447   -7.4250    0.0000 C   0  0  0  0  0  0  0  0  0  0  0  0
    6.4302   -7.8375    0.0000 C   0  0  0  0  0  0  0  0  0  0  0  0
    5.7158   -7.4250    0.0000 C   0  0  0  0  0  0  0  0  0  0  0  0
    7.8592   -7.8375    0.0000 S   0  0  0  0  0  0  0  0  0  0  0  0
    8.5737   -8.2500    0.0000 N   0  0  0  0  0  0  0  0  0  0  0  0
    7.4467   -8.5520    0.0000 O   0  0  0  0  0  0  0  0  0  0  0  0
    8.2717   -7.1230    0.0000 C   0  0  0  0  0  0  0  0  0  0  0  0
    4.2868   -7.4250    0.0000 N   0  0  0  0  0  0  0  0  0  0  0  0
    3.5724   -7.8375    0.0000 C   0  0  0  0  0  0  0  0  0  0  0  0
    2.8579   -7.4250    0.0000 C   0  0  0  0  0  0  0  0  0  0  0  0
    2.1434   -7.8375    0.0000 Br  0  0  0  0  0  0  0  0  0  0  0  0
    2.8579   -4.9500    0.0000 C   0  0  0  0  0  0  0  0  0  0  0  0
    3.5724   -5.3625    0.0000 C   0  0  0  0  0  0  0  0  0  0  0  0
    2.8579   -4.1250    0.0000 O   0  0  0  0  0  0  0  0  0  0  0  0
  1  2  1  0
  2  3  1  0
  4  3  1  1
  4  5  1  0
  5  6  1  0
  6  7  2  0
  7  8  1  0
  8  9  1  0
  9 10  1  0
 10 11  2  0
 11 12  1  0
 12 13  2  0
 13 14  1  0
 14 15  2  0
 10 15  1  0
 13 16  1  0
 16 17  1  0
 16 18  2  0
 16 19  2  0
  8 20  2  0
 20 21  1  0
 21 22  2  0
  6 22  1  0
 22 23  1  0
  4 24  1  0
 24 25  1  1
 24 26  1  0
M  END
>  <pIC50>  (248) 
8.22

>  <chembl_id>  (248) 
CHEMBL3648119

>  <canonical_smiles>  (248) 
COC[C@H](Nc1nc(Nc2ccc(cc2)S(=N)(=O)C)ncc1Br)[C@H](C)O

$$$$
CHEMBL3648120
     RDKit          2D

 27 28  0  0  1  0  0  0  0  0999 V2000
   11.4315   -1.6500    0.0000 C   0  0  0  0  0  0  0  0  0  0  0  0
   10.7171   -2.0625    0.0000 C   0  0  0  0  0  0  0  0  0  0  0  0
   10.0026   -1.6500    0.0000 S   0  0  0  0  0  0  0  0  0  0  0  0
   10.4151   -0.9355    0.0000 N   0  0  0  0  0  0  0  0  0  0  0  0
    9.5901   -2.3645    0.0000 O   0  0  0  0  0  0  0  0  0  0  0  0
    9.2881   -1.2375    0.0000 C   0  0  0  0  0  0  0  0  0  0  0  0
    8.5737   -1.6500    0.0000 C   0  0  0  0  0  0  0  0  0  0  0  0
    7.8592   -1.2375    0.0000 C   0  0  0  0  0  0  0  0  0  0  0  0
    7.8592   -0.4125    0.0000 C   0  0  0  0  0  0  0  0  0  0  0  0
    7.1447    0.0000    0.0000 N   0  0  0  0  0  0  0  0  0  0  0  0
    6.4302   -0.4125    0.0000 C   0  0  0  0  0  0  0  0  0  0  0  0
    6.4302   -1.2375    0.0000 N   0  0  0  0  0  0  0  0  0  0  0  0
    5.7158   -1.6500    0.0000 C   0  0  0  0  0  0  0  0  0  0  0  0
    5.0013   -1.2375    0.0000 C   0  0  0  0  0  0  0  0  0  0  0  0
    4.2868   -1.6500    0.0000 Br  0  0  0  0  0  0  0  0  0  0  0  0
    5.0013   -0.4125    0.0000 C   0  0  0  0  0  0  0  0  0  0  0  0
    4.2868    0.0000    0.0000 N   0  0  0  0  0  0  0  0  0  0  0  0
    4.2868    0.8250    0.0000 C   0  0  0  0  0  0  0  0  0  0  0  0
    3.5724    1.2375    0.0000 C   0  0  0  0  0  0  0  0  0  0  0  0
    3.5724    2.0625    0.0000 O   0  0  0  0  0  0  0  0  0  0  0  0
    2.8579    2.4750    0.0000 C   0  0  0  0  0  0  0  0  0  0  0  0
    5.0013    1.2375    0.0000 C   0  0  0  0  0  0  0  0  0  0  0  0
    5.0013    2.0625    0.0000 C   0  0  0  0  0  0  0  0  0  0  0  0
    5.7158    0.8250    0.0000 O   0  0  0  0  0  0  0  0  0  0  0  0
    5.7158    0.0000    0.0000 N   0  0  0  0  0  0  0  0  0  0  0  0
    8.5737    0.0000    0.0000 C   0  0  0  0  0  0  0  0  0  0  0  0
    9.2881   -0.4125    0.0000 C   0  0  0  0  0  0  0  0  0  0  0  0
  1  2  1  0
  2  3  1  0
  3  4  2  0
  3  5  2  0
  3  6  1  0
  6  7  2  0
  7  8  1  0
  8  9  2  0
  9 10  1  0
 10 11  1  0
 11 12  2  0
 12 13  1  0
 13 14  2  0
 14 15  1  0
 14 16  1  0
 16 17  1  0
 18 17  1  0
 18 19  1  6
 19 20  1  0
 20 21  1  0
 18 22  1  0
 22 23  1  1
 22 24  1  0
 16 25  2  0
 11 25  1  0
  9 26  1  0
 26 27  2  0
  6 27  1  0
M  END
>  <pIC50>  (249) 
8.05

>  <chembl_id>  (249) 
CHEMBL3648120

>  <canonical_smiles>  (249) 
CCS(=N)(=O)c1ccc(Nc2ncc(Br)c(N[C@H](COC)[C@@H](C)O)n2)cc1

$$$$
CHEMBL3648121
     RDKit          2D

 27 28  0  0  1  0  0  0  0  0999 V2000
   11.4315   -1.6500    0.0000 C   0  0  0  0  0  0  0  0  0  0  0  0
   10.7171   -2.0625    0.0000 C   0  0  0  0  0  0  0  0  0  0  0  0
   10.0026   -1.6500    0.0000 S   0  0  0  0  0  0  0  0  0  0  0  0
   10.4151   -0.9355    0.0000 N   0  0  0  0  0  0  0  0  0  0  0  0
    9.5901   -2.3645    0.0000 O   0  0  0  0  0  0  0  0  0  0  0  0
    9.2881   -1.2375    0.0000 C   0  0  0  0  0  0  0  0  0  0  0  0
    8.5737   -1.6500    0.0000 C   0  0  0  0  0  0  0  0  0  0  0  0
    7.8592   -1.2375    0.0000 C   0  0  0  0  0  0  0  0  0  0  0  0
    7.8592   -0.4125    0.0000 C   0  0  0  0  0  0  0  0  0  0  0  0
    7.1447    0.0000    0.0000 N   0  0  0  0  0  0  0  0  0  0  0  0
    6.4302   -0.4125    0.0000 C   0  0  0  0  0  0  0  0  0  0  0  0
    6.4302   -1.2375    0.0000 N   0  0  0  0  0  0  0  0  0  0  0  0
    5.7158   -1.6500    0.0000 C   0  0  0  0  0  0  0  0  0  0  0  0
    5.0013   -1.2375    0.0000 C   0  0  0  0  0  0  0  0  0  0  0  0
    4.2868   -1.6500    0.0000 Br  0  0  0  0  0  0  0  0  0  0  0  0
    5.0013   -0.4125    0.0000 C   0  0  0  0  0  0  0  0  0  0  0  0
    4.2868    0.0000    0.0000 N   0  0  0  0  0  0  0  0  0  0  0  0
    4.2868    0.8250    0.0000 C   0  0  0  0  0  0  0  0  0  0  0  0
    3.5724    1.2375    0.0000 C   0  0  0  0  0  0  0  0  0  0  0  0
    3.5724    2.0625    0.0000 O   0  0  0  0  0  0  0  0  0  0  0  0
    2.8579    2.4750    0.0000 C   0  0  0  0  0  0  0  0  0  0  0  0
    5.0013    1.2375    0.0000 C   0  0  0  0  0  0  0  0  0  0  0  0
    5.0013    2.0625    0.0000 C   0  0  0  0  0  0  0  0  0  0  0  0
    5.7158    0.8250    0.0000 O   0  0  0  0  0  0  0  0  0  0  0  0
    5.7158    0.0000    0.0000 N   0  0  0  0  0  0  0  0  0  0  0  0
    8.5737    0.0000    0.0000 C   0  0  0  0  0  0  0  0  0  0  0  0
    9.2881   -0.4125    0.0000 C   0  0  0  0  0  0  0  0  0  0  0  0
  1  2  1  0
  2  3  1  0
  3  4  2  0
  3  5  2  0
  3  6  1  0
  6  7  2  0
  7  8  1  0
  8  9  2  0
  9 10  1  0
 10 11  1  0
 11 12  2  0
 12 13  1  0
 13 14  2  0
 14 15  1  0
 14 16  1  0
 16 17  1  0
 18 17  1  0
 18 19  1  1
 19 20  1  0
 20 21  1  0
 18 22  1  0
 22 23  1  6
 22 24  1  0
 16 25  2  0
 11 25  1  0
  9 26  1  0
 26 27  2  0
  6 27  1  0
M  END
>  <pIC50>  (250) 
8.05

>  <chembl_id>  (250) 
CHEMBL3648121

>  <canonical_smiles>  (250) 
CCS(=N)(=O)c1ccc(Nc2ncc(Br)c(N[C@@H](COC)[C@H](C)O)n2)cc1

$$$$
CHEMBL3648122
     RDKit          2D

 25 26  0  0  1  0  0  0  0  0999 V2000
   -1.4289    0.8250    0.0000 C   0  0  0  0  0  0  0  0  0  0  0  0
   -0.7145    0.4125    0.0000 C   0  0  0  0  0  0  0  0  0  0  0  0
   -0.7145   -0.4125    0.0000 S   0  0  0  0  0  0  0  0  0  0  0  0
   -1.5395   -0.4125    0.0000 N   0  0  0  0  0  0  0  0  0  0  0  0
    0.1105   -0.4125    0.0000 O   0  0  0  0  0  0  0  0  0  0  0  0
   -0.7145   -1.2375    0.0000 C   0  0  0  0  0  0  0  0  0  0  0  0
    0.0000   -1.6500    0.0000 C   0  0  0  0  0  0  0  0  0  0  0  0
    0.0000   -2.4750    0.0000 C   0  0  0  0  0  0  0  0  0  0  0  0
   -0.7145   -2.8875    0.0000 C   0  0  0  0  0  0  0  0  0  0  0  0
   -0.7145   -3.7125    0.0000 N   0  0  0  0  0  0  0  0  0  0  0  0
    0.0000   -4.1250    0.0000 C   0  0  0  0  0  0  0  0  0  0  0  0
    0.7145   -3.7125    0.0000 N   0  0  0  0  0  0  0  0  0  0  0  0
    1.4289   -4.1250    0.0000 C   0  0  0  0  0  0  0  0  0  0  0  0
    1.4289   -4.9500    0.0000 C   0  0  0  0  0  0  0  0  0  0  0  0
    2.1434   -5.3625    0.0000 Br  0  0  0  0  0  0  0  0  0  0  0  0
    0.7145   -5.3625    0.0000 C   0  0  0  0  0  0  0  0  0  0  0  0
    0.7145   -6.1875    0.0000 N   0  0  0  0  0  0  0  0  0  0  0  0
    1.4289   -6.6000    0.0000 C   0  0  0  0  0  0  0  0  0  0  0  0
    2.1434   -6.1875    0.0000 C   0  0  0  0  0  0  0  0  0  0  0  0
    1.4289   -7.4250    0.0000 C   0  0  0  0  0  0  0  0  0  0  0  0
    2.1434   -7.8375    0.0000 C   0  0  0  0  0  0  0  0  0  0  0  0
    0.7145   -7.8375    0.0000 O   0  0  0  0  0  0  0  0  0  0  0  0
    0.0000   -4.9500    0.0000 N   0  0  0  0  0  0  0  0  0  0  0  0
   -1.4289   -2.4750    0.0000 C   0  0  0  0  0  0  0  0  0  0  0  0
   -1.4289   -1.6500    0.0000 C   0  0  0  0  0  0  0  0  0  0  0  0
  1  2  1  0
  2  3  1  0
  3  4  2  0
  3  5  2  0
  3  6  1  0
  6  7  2  0
  7  8  1  0
  8  9  2  0
  9 10  1  0
 10 11  1  0
 11 12  2  0
 12 13  1  0
 13 14  2  0
 14 15  1  0
 14 16  1  0
 16 17  1  0
 18 17  1  0
 18 19  1  1
 18 20  1  0
 20 21  1  6
 20 22  1  0
 16 23  2  0
 11 23  1  0
  9 24  1  0
 24 25  2  0
  6 25  1  0
M  END
>  <pIC50>  (251) 
8.40

>  <chembl_id>  (251) 
CHEMBL3648122

>  <canonical_smiles>  (251) 
CCS(=N)(=O)c1ccc(Nc2ncc(Br)c(N[C@@H](C)[C@H](C)O)n2)cc1

$$$$
CHEMBL3648124
     RDKit          2D

 26 27  0  0  1  0  0  0  0  0999 V2000
   -1.4289    0.8250    0.0000 C   0  0  0  0  0  0  0  0  0  0  0  0
   -0.7145    0.4125    0.0000 C   0  0  0  0  0  0  0  0  0  0  0  0
   -0.7145   -0.4125    0.0000 S   0  0  0  0  0  0  0  0  0  0  0  0
   -1.5395   -0.4125    0.0000 N   0  0  0  0  0  0  0  0  0  0  0  0
    0.1105   -0.4125    0.0000 O   0  0  0  0  0  0  0  0  0  0  0  0
   -0.7145   -1.2375    0.0000 C   0  0  0  0  0  0  0  0  0  0  0  0
    0.0000   -1.6500    0.0000 C   0  0  0  0  0  0  0  0  0  0  0  0
    0.0000   -2.4750    0.0000 C   0  0  0  0  0  0  0  0  0  0  0  0
   -0.7145   -2.8875    0.0000 C   0  0  0  0  0  0  0  0  0  0  0  0
   -0.7145   -3.7125    0.0000 N   0  0  0  0  0  0  0  0  0  0  0  0
    0.0000   -4.1250    0.0000 C   0  0  0  0  0  0  0  0  0  0  0  0
    0.7145   -3.7125    0.0000 N   0  0  0  0  0  0  0  0  0  0  0  0
    1.4289   -4.1250    0.0000 C   0  0  0  0  0  0  0  0  0  0  0  0
    1.4289   -4.9500    0.0000 C   0  0  0  0  0  0  0  0  0  0  0  0
    2.1434   -5.3625    0.0000 Br  0  0  0  0  0  0  0  0  0  0  0  0
    0.7145   -5.3625    0.0000 C   0  0  0  0  0  0  0  0  0  0  0  0
    0.7145   -6.1875    0.0000 N   0  0  0  0  0  0  0  0  0  0  0  0
    0.0000   -6.6000    0.0000 C   0  0  0  0  0  0  0  0  0  0  0  0
   -0.7145   -6.1875    0.0000 C   0  0  0  0  0  0  0  0  0  0  0  0
    0.0000   -7.4250    0.0000 C   0  0  0  0  0  0  0  0  0  0  0  0
    0.0000   -8.2500    0.0000 C   0  0  0  0  0  0  0  0  0  0  0  0
   -0.8250   -7.4250    0.0000 C   0  0  0  0  0  0  0  0  0  0  0  0
    0.8250   -7.4250    0.0000 O   0  0  0  0  0  0  0  0  0  0  0  0
    0.0000   -4.9500    0.0000 N   0  0  0  0  0  0  0  0  0  0  0  0
   -1.4289   -2.4750    0.0000 C   0  0  0  0  0  0  0  0  0  0  0  0
   -1.4289   -1.6500    0.0000 C   0  0  0  0  0  0  0  0  0  0  0  0
  1  2  1  0
  2  3  1  0
  3  4  2  0
  3  5  2  0
  3  6  1  0
  6  7  2  0
  7  8  1  0
  8  9  2  0
  9 10  1  0
 10 11  1  0
 11 12  2  0
 12 13  1  0
 13 14  2  0
 14 15  1  0
 14 16  1  0
 16 17  1  0
 18 17  1  0
 18 19  1  6
 18 20  1  0
 20 21  1  0
 20 22  1  0
 20 23  1  0
 16 24  2  0
 11 24  1  0
  9 25  1  0
 25 26  2  0
  6 26  1  0
M  END
>  <pIC50>  (252) 
7.62

>  <chembl_id>  (252) 
CHEMBL3648124

>  <canonical_smiles>  (252) 
CCS(=N)(=O)c1ccc(Nc2ncc(Br)c(N[C@@H](C)C(C)(C)O)n2)cc1

$$$$
CHEMBL3648125
     RDKit          2D

 26 27  0  0  1  0  0  0  0  0999 V2000
    3.5724   -0.4125    0.0000 C   0  0  0  0  0  0  0  0  0  0  0  0
    2.8579    0.0000    0.0000 C   0  0  0  0  0  0  0  0  0  0  0  0
    2.1434   -0.4125    0.0000 N   0  0  0  0  0  0  0  0  0  0  0  0
    2.1434   -1.2375    0.0000 C   0  0  0  0  0  0  0  0  0  0  0  0
    2.8579   -1.6500    0.0000 N   0  0  0  0  0  0  0  0  0  0  0  0
    2.8579   -2.4750    0.0000 C   0  0  0  0  0  0  0  0  0  0  0  0
    3.5724   -2.8875    0.0000 N   0  0  0  0  0  0  0  0  0  0  0  0
    3.5724   -3.7125    0.0000 C   0  0  0  0  0  0  0  0  0  0  0  0
    4.2868   -4.1250    0.0000 C   0  0  0  0  0  0  0  0  0  0  0  0
    4.2868   -4.9500    0.0000 C   0  0  0  0  0  0  0  0  0  0  0  0
    3.5724   -5.3625    0.0000 C   0  0  0  0  0  0  0  0  0  0  0  0
    2.8579   -4.9500    0.0000 C   0  0  0  0  0  0  0  0  0  0  0  0
    2.1434   -5.3625    0.0000 C   0  0  0  0  0  0  0  0  0  0  0  0
    2.8579   -4.1250    0.0000 C   0  0  0  0  0  0  0  0  0  0  0  0
    3.5724   -6.1875    0.0000 S   0  0  0  0  0  0  0  0  0  0  0  0
    3.5724   -7.0125    0.0000 N   0  0  0  0  0  0  0  0  0  0  0  0
    4.3974   -6.1875    0.0000 O   0  0  0  0  0  0  0  0  0  0  0  0
    2.7474   -6.1875    0.0000 C   0  0  0  0  0  0  0  0  0  0  0  0
    2.1434   -2.8875    0.0000 N   0  0  0  0  0  0  0  0  0  0  0  0
    1.4289   -2.4750    0.0000 C   0  0  0  0  0  0  0  0  0  0  0  0
    1.4289   -1.6500    0.0000 C   0  0  0  0  0  0  0  0  0  0  0  0
    0.7145   -1.2375    0.0000 Br  0  0  0  0  0  0  0  0  0  0  0  0
    2.8579    0.8250    0.0000 C   0  0  0  0  0  0  0  0  0  0  0  0
    2.8579    1.6500    0.0000 C   0  0  0  0  0  0  0  0  0  0  0  0
    3.6829    0.8250    0.0000 C   0  0  0  0  0  0  0  0  0  0  0  0
    2.0329    0.8250    0.0000 O   0  0  0  0  0  0  0  0  0  0  0  0
  2  1  1  6
  2  3  1  0
  3  4  1  0
  4  5  2  0
  5  6  1  0
  6  7  1  0
  7  8  1  0
  8  9  2  0
  9 10  1  0
 10 11  2  0
 11 12  1  0
 12 13  1  0
 12 14  2  0
  8 14  1  0
 11 15  1  0
 15 16  1  0
 15 17  2  0
 15 18  2  0
  6 19  2  0
 19 20  1  0
 20 21  2  0
  4 21  1  0
 21 22  1  0
  2 23  1  0
 23 24  1  0
 23 25  1  0
 23 26  1  0
M  END
>  <pIC50>  (253) 
8.15

>  <chembl_id>  (253) 
CHEMBL3648125

>  <canonical_smiles>  (253) 
C[C@H](Nc1nc(Nc2ccc(c(C)c2)S(=N)(=O)C)ncc1Br)C(C)(C)O

$$$$
CHEMBL3648126
     RDKit          2D

 22 23  0  0  0  0  0  0  0  0999 V2000
    1.4289    0.8250    0.0000 C   0  0  0  0  0  0  0  0  0  0  0  0
    1.4289    0.0000    0.0000 C   0  0  0  0  0  0  0  0  0  0  0  0
    0.7145   -0.4125    0.0000 C   0  0  0  0  0  0  0  0  0  0  0  0
    2.1434   -0.4125    0.0000 N   0  0  0  0  0  0  0  0  0  0  0  0
    2.1434   -1.2375    0.0000 C   0  0  0  0  0  0  0  0  0  0  0  0
    2.8579   -1.6500    0.0000 N   0  0  0  0  0  0  0  0  0  0  0  0
    2.8579   -2.4750    0.0000 C   0  0  0  0  0  0  0  0  0  0  0  0
    3.5724   -2.8875    0.0000 N   0  0  0  0  0  0  0  0  0  0  0  0
    3.5724   -3.7125    0.0000 C   0  0  0  0  0  0  0  0  0  0  0  0
    4.2868   -4.1250    0.0000 C   0  0  0  0  0  0  0  0  0  0  0  0
    4.2868   -4.9500    0.0000 C   0  0  0  0  0  0  0  0  0  0  0  0
    3.5724   -5.3625    0.0000 C   0  0  0  0  0  0  0  0  0  0  0  0
    2.8579   -4.9500    0.0000 C   0  0  0  0  0  0  0  0  0  0  0  0
    2.8579   -4.1250    0.0000 C   0  0  0  0  0  0  0  0  0  0  0  0
    3.5724   -6.1875    0.0000 S   0  0  0  0  0  0  0  0  0  0  0  0
    3.5724   -7.0125    0.0000 N   0  0  0  0  0  0  0  0  0  0  0  0
    2.7474   -6.1875    0.0000 O   0  0  0  0  0  0  0  0  0  0  0  0
    4.3974   -6.1875    0.0000 C   0  0  0  0  0  0  0  0  0  0  0  0
    2.1434   -2.8875    0.0000 N   0  0  0  0  0  0  0  0  0  0  0  0
    1.4289   -2.4750    0.0000 C   0  0  0  0  0  0  0  0  0  0  0  0
    1.4289   -1.6500    0.0000 C   0  0  0  0  0  0  0  0  0  0  0  0
    0.7145   -1.2375    0.0000 Br  0  0  0  0  0  0  0  0  0  0  0  0
  1  2  1  0
  2  3  1  0
  2  4  1  0
  4  5  1  0
  5  6  2  0
  6  7  1  0
  7  8  1  0
  8  9  1  0
  9 10  2  0
 10 11  1  0
 11 12  2  0
 12 13  1  0
 13 14  2  0
  9 14  1  0
 12 15  1  0
 15 16  1  0
 15 17  2  0
 15 18  2  0
  7 19  2  0
 19 20  1  0
 20 21  2  0
  5 21  1  0
 21 22  1  0
M  END
>  <pIC50>  (254) 
7.80

>  <chembl_id>  (254) 
CHEMBL3648126

>  <canonical_smiles>  (254) 
CC(C)Nc1nc(Nc2ccc(cc2)S(=N)(=O)C)ncc1Br

$$$$
CHEMBL3648127
     RDKit          2D

 24 25  0  0  0  0  0  0  0  0999 V2000
    0.7145    1.2375    0.0000 C   0  0  0  0  0  0  0  0  0  0  0  0
    1.4289    0.8250    0.0000 C   0  0  0  0  0  0  0  0  0  0  0  0
    1.4289    0.0000    0.0000 C   0  0  0  0  0  0  0  0  0  0  0  0
    0.7145   -0.4125    0.0000 C   0  0  0  0  0  0  0  0  0  0  0  0
    0.0000    0.0000    0.0000 O   0  0  0  0  0  0  0  0  0  0  0  0
    2.1434   -0.4125    0.0000 S   0  0  0  0  0  0  0  0  0  0  0  0
    2.1434   -1.2375    0.0000 C   0  0  0  0  0  0  0  0  0  0  0  0
    2.8579   -1.6500    0.0000 N   0  0  0  0  0  0  0  0  0  0  0  0
    2.8579   -2.4750    0.0000 C   0  0  0  0  0  0  0  0  0  0  0  0
    3.5724   -2.8875    0.0000 N   0  0  0  0  0  0  0  0  0  0  0  0
    3.5724   -3.7125    0.0000 C   0  0  0  0  0  0  0  0  0  0  0  0
    4.2868   -4.1250    0.0000 C   0  0  0  0  0  0  0  0  0  0  0  0
    4.2868   -4.9500    0.0000 C   0  0  0  0  0  0  0  0  0  0  0  0
    3.5724   -5.3625    0.0000 C   0  0  0  0  0  0  0  0  0  0  0  0
    2.8579   -4.9500    0.0000 C   0  0  0  0  0  0  0  0  0  0  0  0
    2.8579   -4.1250    0.0000 C   0  0  0  0  0  0  0  0  0  0  0  0
    3.5724   -6.1875    0.0000 S   0  0  0  0  0  0  0  0  0  0  0  0
    3.5724   -7.0125    0.0000 N   0  0  0  0  0  0  0  0  0  0  0  0
    2.7474   -6.1875    0.0000 O   0  0  0  0  0  0  0  0  0  0  0  0
    4.3974   -6.1875    0.0000 C   0  0  0  0  0  0  0  0  0  0  0  0
    2.1434   -2.8875    0.0000 N   0  0  0  0  0  0  0  0  0  0  0  0
    1.4289   -2.4750    0.0000 C   0  0  0  0  0  0  0  0  0  0  0  0
    1.4289   -1.6500    0.0000 C   0  0  0  0  0  0  0  0  0  0  0  0
    0.7145   -1.2375    0.0000 Br  0  0  0  0  0  0  0  0  0  0  0  0
  1  2  1  0
  2  3  1  0
  3  4  1  0
  4  5  1  0
  3  6  1  0
  6  7  1  0
  7  8  2  0
  8  9  1  0
  9 10  1  0
 10 11  1  0
 11 12  2  0
 12 13  1  0
 13 14  2  0
 14 15  1  0
 15 16  2  0
 11 16  1  0
 14 17  1  0
 17 18  1  0
 17 19  2  0
 17 20  2  0
  9 21  2  0
 21 22  1  0
 22 23  2  0
  7 23  1  0
 23 24  1  0
M  END
>  <pIC50>  (255) 
7.80

>  <chembl_id>  (255) 
CHEMBL3648127

>  <canonical_smiles>  (255) 
CCC(CO)Sc1nc(Nc2ccc(cc2)S(=N)(=O)C)ncc1Br

$$$$
CHEMBL3648128
     RDKit          2D

 24 25  0  0  0  0  0  0  0  0999 V2000
    1.4289    1.6500    0.0000 C   0  0  0  0  0  0  0  0  0  0  0  0
    1.4289    0.8250    0.0000 C   0  0  0  0  0  0  0  0  0  0  0  0
    0.6039    0.8250    0.0000 C   0  0  0  0  0  0  0  0  0  0  0  0
    2.2539    0.8250    0.0000 O   0  0  0  0  0  0  0  0  0  0  0  0
    1.4289    0.0000    0.0000 C   0  0  0  0  0  0  0  0  0  0  0  0
    2.1434   -0.4125    0.0000 S   0  0  0  0  0  0  0  0  0  0  0  0
    2.1434   -1.2375    0.0000 C   0  0  0  0  0  0  0  0  0  0  0  0
    2.8579   -1.6500    0.0000 N   0  0  0  0  0  0  0  0  0  0  0  0
    2.8579   -2.4750    0.0000 C   0  0  0  0  0  0  0  0  0  0  0  0
    3.5724   -2.8875    0.0000 N   0  0  0  0  0  0  0  0  0  0  0  0
    3.5724   -3.7125    0.0000 C   0  0  0  0  0  0  0  0  0  0  0  0
    4.2868   -4.1250    0.0000 C   0  0  0  0  0  0  0  0  0  0  0  0
    4.2868   -4.9500    0.0000 C   0  0  0  0  0  0  0  0  0  0  0  0
    3.5724   -5.3625    0.0000 C   0  0  0  0  0  0  0  0  0  0  0  0
    2.8579   -4.9500    0.0000 C   0  0  0  0  0  0  0  0  0  0  0  0
    2.8579   -4.1250    0.0000 C   0  0  0  0  0  0  0  0  0  0  0  0
    3.5724   -6.1875    0.0000 S   0  0  0  0  0  0  0  0  0  0  0  0
    3.5724   -7.0125    0.0000 N   0  0  0  0  0  0  0  0  0  0  0  0
    2.7474   -6.1875    0.0000 O   0  0  0  0  0  0  0  0  0  0  0  0
    4.3974   -6.1875    0.0000 C   0  0  0  0  0  0  0  0  0  0  0  0
    2.1434   -2.8875    0.0000 N   0  0  0  0  0  0  0  0  0  0  0  0
    1.4289   -2.4750    0.0000 C   0  0  0  0  0  0  0  0  0  0  0  0
    1.4289   -1.6500    0.0000 C   0  0  0  0  0  0  0  0  0  0  0  0
    0.7145   -1.2375    0.0000 Br  0  0  0  0  0  0  0  0  0  0  0  0
  1  2  1  0
  2  3  1  0
  2  4  1  0
  2  5  1  0
  5  6  1  0
  6  7  1  0
  7  8  2  0
  8  9  1  0
  9 10  1  0
 10 11  1  0
 11 12  2  0
 12 13  1  0
 13 14  2  0
 14 15  1  0
 15 16  2  0
 11 16  1  0
 14 17  1  0
 17 18  1  0
 17 19  2  0
 17 20  2  0
  9 21  2  0
 21 22  1  0
 22 23  2  0
  7 23  1  0
 23 24  1  0
M  END
>  <pIC50>  (256) 
8.10

>  <chembl_id>  (256) 
CHEMBL3648128

>  <canonical_smiles>  (256) 
CC(C)(O)CSc1nc(Nc2ccc(cc2)S(=N)(=O)C)ncc1Br

$$$$
CHEMBL3654239
     RDKit          2D

 33 37  0  0  0  0  0  0  0  0999 V2000
   -1.4087    0.0165    0.0000 C   0  0  0  0  0  0  0  0  0  0  0  0
   -0.5837    0.0165    0.0000 N   0  0  0  0  0  0  0  0  0  0  0  0
   -0.1712    0.7310    0.0000 C   0  0  0  0  0  0  0  0  0  0  0  0
   -0.1712   -0.6979    0.0000 C   0  0  0  0  0  0  0  0  0  0  0  0
   -0.5837   -1.4124    0.0000 O   0  0  0  0  0  0  0  0  0  0  0  0
    0.6538   -0.6979    0.0000 C   0  0  0  0  0  0  0  0  0  0  0  0
    1.1387   -0.0305    0.0000 C   0  0  0  0  0  0  0  0  0  0  0  0
    1.9233   -0.2854    0.0000 C   0  0  0  0  0  0  0  0  0  0  0  0
    2.6378    0.1271    0.0000 C   0  0  0  0  0  0  0  0  0  0  0  0
    3.3523   -0.2854    0.0000 N   0  0  0  0  0  0  0  0  0  0  0  0
    3.3523   -1.1104    0.0000 C   0  0  0  0  0  0  0  0  0  0  0  0
    4.0668   -1.5229    0.0000 N   0  0  0  0  0  0  0  0  0  0  0  0
    4.0668   -2.3479    0.0000 C   0  0  0  0  0  0  0  0  0  0  0  0
    4.7812   -2.7604    0.0000 C   0  0  0  0  0  0  0  0  0  0  0  0
    4.7812   -3.5854    0.0000 C   0  0  0  0  0  0  0  0  0  0  0  0
    4.0668   -3.9979    0.0000 C   0  0  0  0  0  0  0  0  0  0  0  0
    3.3523   -3.5854    0.0000 C   0  0  0  0  0  0  0  0  0  0  0  0
    3.3523   -2.7604    0.0000 N   0  0  0  0  0  0  0  0  0  0  0  0
    4.0668   -4.8229    0.0000 N   0  0  0  0  0  0  0  0  0  0  0  0
    4.8101   -5.1809    0.0000 C   0  0  0  0  0  0  0  0  0  0  0  0
    4.9936   -5.9852    0.0000 C   0  0  0  0  0  0  0  0  0  0  0  0
    4.4793   -6.6302    0.0000 C   0  0  0  0  0  0  0  0  0  0  0  0
    3.6543   -6.6302    0.0000 N   0  0  0  0  0  0  0  0  0  0  0  0
    3.1399   -5.9852    0.0000 C   0  0  0  0  0  0  0  0  0  0  0  0
    3.3235   -5.1809    0.0000 C   0  0  0  0  0  0  0  0  0  0  0  0
    2.6378   -1.5229    0.0000 N   0  0  0  0  0  0  0  0  0  0  0  0
    1.9233   -1.1104    0.0000 C   0  0  0  0  0  0  0  0  0  0  0  0
    1.1387   -1.3654    0.0000 N   0  0  0  0  0  0  0  0  0  0  0  0
    0.8838   -2.1500    0.0000 C   0  0  0  0  0  0  0  0  0  0  0  0
    1.3687   -2.8174    0.0000 C   0  0  0  0  0  0  0  0  0  0  0  0
    0.8838   -3.4849    0.0000 C   0  0  0  0  0  0  0  0  0  0  0  0
    0.0992   -3.2299    0.0000 C   0  0  0  0  0  0  0  0  0  0  0  0
    0.0992   -2.4049    0.0000 C   0  0  0  0  0  0  0  0  0  0  0  0
  1  2  1  0
  2  3  1  0
  2  4  1  0
  4  5  2  0
  4  6  1  0
  6  7  2  0
  7  8  1  0
  8  9  2  0
  9 10  1  0
 10 11  2  0
 11 12  1  0
 12 13  1  0
 13 14  2  0
 14 15  1  0
 15 16  2  0
 16 17  1  0
 17 18  2  0
 13 18  1  0
 16 19  1  0
 19 20  1  0
 20 21  1  0
 21 22  1  0
 22 23  1  0
 23 24  1  0
 24 25  1  0
 19 25  1  0
 11 26  1  0
 26 27  2  0
  8 27  1  0
 27 28  1  0
  6 28  1  0
 28 29  1  0
 29 30  1  0
 30 31  1  0
 31 32  1  0
 32 33  1  0
 29 33  1  0
M  END
>  <pIC50>  (257) 
5.10

>  <chembl_id>  (257) 
CHEMBL3654239

>  <canonical_smiles>  (257) 
CN(C)C(=O)c1cc2cnc(Nc3ccc(cn3)N4CCCNCC4)nc2n1C5CCCC5

$$$$
CHEMBL3654242
     RDKit          2D

 32 36  0  0  0  0  0  0  0  0999 V2000
   -1.4087    0.0165    0.0000 C   0  0  0  0  0  0  0  0  0  0  0  0
   -0.5837    0.0165    0.0000 N   0  0  0  0  0  0  0  0  0  0  0  0
   -0.1712    0.7310    0.0000 C   0  0  0  0  0  0  0  0  0  0  0  0
   -0.1712   -0.6979    0.0000 C   0  0  0  0  0  0  0  0  0  0  0  0
   -0.5837   -1.4124    0.0000 O   0  0  0  0  0  0  0  0  0  0  0  0
    0.6538   -0.6979    0.0000 C   0  0  0  0  0  0  0  0  0  0  0  0
    1.1387   -0.0305    0.0000 C   0  0  0  0  0  0  0  0  0  0  0  0
    1.9233   -0.2854    0.0000 C   0  0  0  0  0  0  0  0  0  0  0  0
    2.6378    0.1271    0.0000 C   0  0  0  0  0  0  0  0  0  0  0  0
    3.3523   -0.2854    0.0000 N   0  0  0  0  0  0  0  0  0  0  0  0
    3.3523   -1.1104    0.0000 C   0  0  0  0  0  0  0  0  0  0  0  0
    4.0668   -1.5229    0.0000 N   0  0  0  0  0  0  0  0  0  0  0  0
    4.0668   -2.3479    0.0000 C   0  0  0  0  0  0  0  0  0  0  0  0
    4.7812   -2.7604    0.0000 C   0  0  0  0  0  0  0  0  0  0  0  0
    4.7812   -3.5854    0.0000 C   0  0  0  0  0  0  0  0  0  0  0  0
    4.0668   -3.9979    0.0000 C   0  0  0  0  0  0  0  0  0  0  0  0
    4.0668   -4.8229    0.0000 C   0  0  0  0  0  0  0  0  0  0  0  0
    3.3523   -5.2354    0.0000 N   0  0  0  0  0  0  0  0  0  0  0  0
    3.1388   -6.0323    0.0000 C   0  0  0  0  0  0  0  0  0  0  0  0
    2.3419   -5.8188    0.0000 C   0  0  0  0  0  0  0  0  0  0  0  0
    1.6274   -6.2313    0.0000 O   0  0  0  0  0  0  0  0  0  0  0  0
    2.5554   -5.0219    0.0000 C   0  0  0  0  0  0  0  0  0  0  0  0
    3.3523   -3.5854    0.0000 C   0  0  0  0  0  0  0  0  0  0  0  0
    3.3523   -2.7604    0.0000 N   0  0  0  0  0  0  0  0  0  0  0  0
    2.6378   -1.5229    0.0000 N   0  0  0  0  0  0  0  0  0  0  0  0
    1.9233   -1.1104    0.0000 C   0  0  0  0  0  0  0  0  0  0  0  0
    1.1387   -1.3654    0.0000 N   0  0  0  0  0  0  0  0  0  0  0  0
    0.8838   -2.1500    0.0000 C   0  0  0  0  0  0  0  0  0  0  0  0
    1.3687   -2.8174    0.0000 C   0  0  0  0  0  0  0  0  0  0  0  0
    0.8838   -3.4849    0.0000 C   0  0  0  0  0  0  0  0  0  0  0  0
    0.0992   -3.2299    0.0000 C   0  0  0  0  0  0  0  0  0  0  0  0
    0.0992   -2.4049    0.0000 C   0  0  0  0  0  0  0  0  0  0  0  0
  1  2  1  0
  2  3  1  0
  2  4  1  0
  4  5  2  0
  4  6  1  0
  6  7  2  0
  7  8  1  0
  8  9  2  0
  9 10  1  0
 10 11  2  0
 11 12  1  0
 12 13  1  0
 13 14  2  0
 14 15  1  0
 15 16  2  0
 16 17  1  0
 17 18  1  0
 18 19  1  0
 19 20  1  0
 20 21  1  0
 20 22  1  0
 18 22  1  0
 16 23  1  0
 23 24  2  0
 13 24  1  0
 11 25  1  0
 25 26  2  0
  8 26  1  0
 26 27  1  0
  6 27  1  0
 27 28  1  0
 28 29  1  0
 29 30  1  0
 30 31  1  0
 31 32  1  0
 28 32  1  0
M  END
>  <pIC50>  (258) 
4.85

>  <chembl_id>  (258) 
CHEMBL3654242

>  <canonical_smiles>  (258) 
CN(C)C(=O)c1cc2cnc(Nc3ccc(CN4CC(O)C4)cn3)nc2n1C5CCCC5

$$$$
CHEMBL3654243
     RDKit          2D

 32 37  0  0  0  0  0  0  0  0999 V2000
    0.8838   -3.4849    0.0000 C   0  0  0  0  0  0  0  0  0  0  0  0
    0.0992   -3.2299    0.0000 C   0  0  0  0  0  0  0  0  0  0  0  0
    0.0992   -2.4049    0.0000 C   0  0  0  0  0  0  0  0  0  0  0  0
    0.8838   -2.1500    0.0000 C   0  0  0  0  0  0  0  0  0  0  0  0
    1.3687   -2.8174    0.0000 C   0  0  0  0  0  0  0  0  0  0  0  0
    1.1387   -1.3654    0.0000 N   0  0  0  0  0  0  0  0  0  0  0  0
    0.6538   -0.6979    0.0000 C   0  0  0  0  0  0  0  0  0  0  0  0
    1.1387   -0.0305    0.0000 C   0  0  0  0  0  0  0  0  0  0  0  0
    1.9233   -0.2854    0.0000 C   0  0  0  0  0  0  0  0  0  0  0  0
    2.6378    0.1271    0.0000 C   0  0  0  0  0  0  0  0  0  0  0  0
    3.3523   -0.2854    0.0000 N   0  0  0  0  0  0  0  0  0  0  0  0
    3.3523   -1.1104    0.0000 C   0  0  0  0  0  0  0  0  0  0  0  0
    4.0668   -1.5229    0.0000 N   0  0  0  0  0  0  0  0  0  0  0  0
    4.7812   -1.1104    0.0000 C   0  0  0  0  0  0  0  0  0  0  0  0
    4.7812   -0.2854    0.0000 C   0  0  0  0  0  0  0  0  0  0  0  0
    5.4957    0.1271    0.0000 C   0  0  0  0  0  0  0  0  0  0  0  0
    6.2102   -0.2854    0.0000 C   0  0  0  0  0  0  0  0  0  0  0  0
    6.2102   -1.1104    0.0000 C   0  0  0  0  0  0  0  0  0  0  0  0
    5.4957   -1.5229    0.0000 N   0  0  0  0  0  0  0  0  0  0  0  0
    6.9246    0.1271    0.0000 N   0  0  0  0  0  0  0  0  0  0  0  0
    6.9246    0.9521    0.0000 C   0  0  0  0  0  0  0  0  0  0  0  0
    7.6391    1.3646    0.0000 C   0  0  0  0  0  0  0  0  0  0  0  0
    8.3536    0.9521    0.0000 N   0  0  0  0  0  0  0  0  0  0  0  0
    8.3536    0.1271    0.0000 C   0  0  0  0  0  0  0  0  0  0  0  0
    7.6391   -0.2854    0.0000 C   0  0  0  0  0  0  0  0  0  0  0  0
    2.6378   -1.5229    0.0000 N   0  0  0  0  0  0  0  0  0  0  0  0
    1.9233   -1.1104    0.0000 C   0  0  0  0  0  0  0  0  0  0  0  0
   -0.1712   -0.6979    0.0000 C   0  0  0  0  0  0  0  0  0  0  0  0
   -0.6561   -1.3654    0.0000 O   0  0  0  0  0  0  0  0  0  0  0  0
   -1.4407   -1.1104    0.0000 C   0  0  0  0  0  0  0  0  0  0  0  0
   -1.4407   -0.2854    0.0000 N   0  0  0  0  0  0  0  0  0  0  0  0
   -0.6561   -0.0305    0.0000 C   0  0  0  0  0  0  0  0  0  0  0  0
  1  2  1  0
  2  3  1  0
  3  4  1  0
  4  5  1  0
  1  5  1  0
  4  6  1  0
  6  7  1  0
  7  8  2  0
  8  9  1  0
  9 10  2  0
 10 11  1  0
 11 12  2  0
 12 13  1  0
 13 14  1  0
 14 15  2  0
 15 16  1  0
 16 17  2  0
 17 18  1  0
 18 19  2  0
 14 19  1  0
 17 20  1  0
 20 21  1  0
 21 22  1  0
 22 23  1  0
 23 24  1  0
 24 25  1  0
 20 25  1  0
 12 26  1  0
 26 27  2  0
  6 27  1  0
  9 27  1  0
  7 28  1  0
 28 29  1  0
 29 30  1  0
 30 31  2  0
 31 32  1  0
 28 32  2  0
M  END
>  <pIC50>  (259) 
5.46

>  <chembl_id>  (259) 
CHEMBL3654243

>  <canonical_smiles>  (259) 
C1CCC(C1)n2c(cc3cnc(Nc4ccc(cn4)N5CCNCC5)nc23)c6ocnc6

$$$$
CHEMBL3654250
     RDKit          2D

 33 38  0  0  0  0  0  0  0  0999 V2000
    6.9246    0.6979    0.0000 C   0  0  0  0  0  0  0  0  0  0  0  0
    7.6391    1.1104    0.0000 N   0  0  0  0  0  0  0  0  0  0  0  0
    7.6391    1.9354    0.0000 C   0  0  0  0  0  0  0  0  0  0  0  0
    8.3536    2.3479    0.0000 C   0  0  0  0  0  0  0  0  0  0  0  0
    9.0681    1.9354    0.0000 N   0  0  0  0  0  0  0  0  0  0  0  0
    9.0681    1.1104    0.0000 C   0  0  0  0  0  0  0  0  0  0  0  0
    8.3536    0.6979    0.0000 C   0  0  0  0  0  0  0  0  0  0  0  0
    6.2102    1.1104    0.0000 C   0  0  0  0  0  0  0  0  0  0  0  0
    5.4957    0.6979    0.0000 C   0  0  0  0  0  0  0  0  0  0  0  0
    4.7812    1.1104    0.0000 C   0  0  0  0  0  0  0  0  0  0  0  0
    4.7812    1.9354    0.0000 C   0  0  0  0  0  0  0  0  0  0  0  0
    4.0668    2.3479    0.0000 N   0  0  0  0  0  0  0  0  0  0  0  0
    3.3523    1.9354    0.0000 C   0  0  0  0  0  0  0  0  0  0  0  0
    3.3523    1.1104    0.0000 N   0  0  0  0  0  0  0  0  0  0  0  0
    2.6378    0.6979    0.0000 C   0  0  0  0  0  0  0  0  0  0  0  0
    1.9233    1.1104    0.0000 C   0  0  0  0  0  0  0  0  0  0  0  0
    1.1387    0.8555    0.0000 C   0  0  0  0  0  0  0  0  0  0  0  0
    0.6538    1.5229    0.0000 C   0  0  0  0  0  0  0  0  0  0  0  0
   -0.1712    1.5229    0.0000 C   0  0  0  0  0  0  0  0  0  0  0  0
   -0.6561    0.8555    0.0000 O   0  0  0  0  0  0  0  0  0  0  0  0
   -1.4407    1.1104    0.0000 C   0  0  0  0  0  0  0  0  0  0  0  0
   -1.4407    1.9354    0.0000 N   0  0  0  0  0  0  0  0  0  0  0  0
   -0.6561    2.1904    0.0000 C   0  0  0  0  0  0  0  0  0  0  0  0
    1.1387    2.1904    0.0000 N   0  0  0  0  0  0  0  0  0  0  0  0
    0.8838    2.9750    0.0000 C   0  0  0  0  0  0  0  0  0  0  0  0
    0.0992    3.2299    0.0000 C   0  0  0  0  0  0  0  0  0  0  0  0
    0.0992    4.0549    0.0000 C   0  0  0  0  0  0  0  0  0  0  0  0
    0.8838    4.3099    0.0000 C   0  0  0  0  0  0  0  0  0  0  0  0
    1.3687    3.6424    0.0000 C   0  0  0  0  0  0  0  0  0  0  0  0
    1.9233    1.9354    0.0000 C   0  0  0  0  0  0  0  0  0  0  0  0
    2.6378    2.3479    0.0000 N   0  0  0  0  0  0  0  0  0  0  0  0
    5.4957    2.3479    0.0000 N   0  0  0  0  0  0  0  0  0  0  0  0
    6.2102    1.9354    0.0000 C   0  0  0  0  0  0  0  0  0  0  0  0
  1  2  1  0
  2  3  1  0
  3  4  1  0
  4  5  1  0
  5  6  1  0
  6  7  1  0
  2  7  1  0
  1  8  1  0
  8  9  2  0
  9 10  1  0
 10 11  2  0
 11 12  1  0
 12 13  1  0
 13 14  2  0
 14 15  1  0
 15 16  2  0
 16 17  1  0
 17 18  2  0
 18 19  1  0
 19 20  1  0
 20 21  1  0
 21 22  2  0
 22 23  1  0
 19 23  2  0
 18 24  1  0
 24 25  1  0
 25 26  1  0
 26 27  1  0
 27 28  1  0
 28 29  1  0
 25 29  1  0
 24 30  1  0
 16 30  1  0
 30 31  2  0
 13 31  1  0
 11 32  1  0
 32 33  2  0
  8 33  1  0
M  END
>  <pIC50>  (260) 
5.55

>  <chembl_id>  (260) 
CHEMBL3654250

>  <canonical_smiles>  (260) 
C(N1CCNCC1)c2ccc(Nc3ncc4cc(c5ocnc5)n(C6CCCC6)c4n3)nc2

$$$$
CHEMBL3655766
     RDKit          2D

 28 31  0  0  1  0  0  0  0  0999 V2000
    4.7812    4.4104    0.0000 C   0  0  0  0  0  0  0  0  0  0  0  0
    4.7812    3.5854    0.0000 C   0  0  0  0  0  0  0  0  0  0  0  0
    4.0668    3.1729    0.0000 C   0  0  0  0  0  0  0  0  0  0  0  0
    4.0668    2.3479    0.0000 N   0  0  0  0  0  0  0  0  0  0  0  0
    3.3523    1.9354    0.0000 C   0  0  0  0  0  0  0  0  0  0  0  0
    3.3523    1.1104    0.0000 N   0  0  0  0  0  0  0  0  0  0  0  0
    2.6378    0.6979    0.0000 C   0  0  0  0  0  0  0  0  0  0  0  0
    2.6378   -0.1271    0.0000 N   0  0  0  0  0  0  0  0  0  0  0  0
    3.3523   -0.5396    0.0000 C   0  0  0  0  0  0  0  0  0  0  0  0
    3.3523   -1.3646    0.0000 C   0  0  0  0  0  0  0  0  0  0  0  0
    4.0668   -1.7771    0.0000 C   0  0  0  0  0  0  0  0  0  0  0  0
    4.0668   -2.6021    0.0000 C   0  0  0  0  0  0  0  0  0  0  0  0
    3.3523   -3.0146    0.0000 C   0  0  0  0  0  0  0  0  0  0  0  0
    2.6378   -2.6021    0.0000 N   0  0  0  0  0  0  0  0  0  0  0  0
    2.6378   -1.7771    0.0000 C   0  0  0  0  0  0  0  0  0  0  0  0
    1.9233    1.1104    0.0000 C   0  0  0  0  0  0  0  0  0  0  0  0
    1.1387    0.8555    0.0000 N   0  0  0  0  0  0  0  0  0  0  0  0
    0.6538    1.5229    0.0000 C   0  0  0  0  0  0  0  0  0  0  0  0
    1.1387    2.1904    0.0000 N   0  0  0  0  0  0  0  0  0  0  0  0
    0.8838    2.9750    0.0000 C   0  0  0  0  0  0  0  0  0  0  0  0
    1.4358    3.5881    0.0000 C   0  0  0  0  0  0  0  0  0  0  0  0
    1.6073    4.3951    0.0000 C   0  0  0  0  0  0  0  0  0  0  0  0
    2.2204    3.8430    0.0000 C   0  0  0  0  0  0  0  0  0  0  0  0
    1.9233    1.9354    0.0000 C   0  0  0  0  0  0  0  0  0  0  0  0
    2.6378    2.3479    0.0000 N   0  0  0  0  0  0  0  0  0  0  0  0
    3.3523    3.5854    0.0000 C   0  0  0  0  0  0  0  0  0  0  0  0
    2.6378    3.1729    0.0000 C   0  0  0  0  0  0  0  0  0  0  0  0
    3.3523    4.4104    0.0000 O   0  0  0  0  0  0  0  0  0  0  0  0
  1  2  1  0
  3  2  1  6
  3  4  1  0
  4  5  1  0
  5  6  2  0
  6  7  1  0
  7  8  1  0
  8  9  1  0
  9 10  1  0
 10 11  2  0
 11 12  1  0
 12 13  2  0
 13 14  1  0
 14 15  2  0
 10 15  1  0
  7 16  2  0
 16 17  1  0
 17 18  2  0
 18 19  1  0
 19 20  1  0
 20 21  1  0
 21 22  1  0
 22 23  1  0
 21 23  1  0
 19 24  1  0
 16 24  1  0
 24 25  2  0
  5 25  1  0
  3 26  1  0
 26 27  1  1
 26 28  1  0
M  END
>  <pIC50>  (261) 
6.08

>  <chembl_id>  (261) 
CHEMBL3655766

>  <canonical_smiles>  (261) 
CC[C@H](Nc1nc(NCc2cccnc2)c3ncn(CC4CC4)c3n1)[C@@H](C)O

$$$$
CHEMBL3655767
     RDKit          2D

 23 25  0  0  1  0  0  0  0  0999 V2000
    4.7812    4.4104    0.0000 C   0  0  0  0  0  0  0  0  0  0  0  0
    4.7812    3.5854    0.0000 C   0  0  0  0  0  0  0  0  0  0  0  0
    4.0668    3.1729    0.0000 C   0  0  0  0  0  0  0  0  0  0  0  0
    4.0668    2.3479    0.0000 N   0  0  0  0  0  0  0  0  0  0  0  0
    3.3523    1.9354    0.0000 C   0  0  0  0  0  0  0  0  0  0  0  0
    3.3523    1.1104    0.0000 N   0  0  0  0  0  0  0  0  0  0  0  0
    2.6378    0.6979    0.0000 C   0  0  0  0  0  0  0  0  0  0  0  0
    2.6378   -0.1271    0.0000 N   0  0  0  0  0  0  0  0  0  0  0  0
    1.9233   -0.5396    0.0000 C   0  0  0  0  0  0  0  0  0  0  0  0
    1.5108   -1.2540    0.0000 C   0  0  0  0  0  0  0  0  0  0  0  0
    1.0983   -0.5396    0.0000 C   0  0  0  0  0  0  0  0  0  0  0  0
    1.9233    1.1104    0.0000 C   0  0  0  0  0  0  0  0  0  0  0  0
    1.1387    0.8555    0.0000 N   0  0  0  0  0  0  0  0  0  0  0  0
    0.6538    1.5229    0.0000 C   0  0  0  0  0  0  0  0  0  0  0  0
    1.1387    2.1904    0.0000 N   0  0  0  0  0  0  0  0  0  0  0  0
    0.8838    2.9750    0.0000 C   0  0  0  0  0  0  0  0  0  0  0  0
    1.4358    3.5881    0.0000 C   0  0  0  0  0  0  0  0  0  0  0  0
    0.0768    3.1465    0.0000 C   0  0  0  0  0  0  0  0  0  0  0  0
    1.9233    1.9354    0.0000 C   0  0  0  0  0  0  0  0  0  0  0  0
    2.6378    2.3479    0.0000 N   0  0  0  0  0  0  0  0  0  0  0  0
    3.3523    3.5854    0.0000 C   0  0  0  0  0  0  0  0  0  0  0  0
    2.6378    3.1729    0.0000 C   0  0  0  0  0  0  0  0  0  0  0  0
    3.3523    4.4104    0.0000 O   0  0  0  0  0  0  0  0  0  0  0  0
  1  2  1  0
  3  2  1  6
  3  4  1  0
  4  5  1  0
  5  6  2  0
  6  7  1  0
  7  8  1  0
  8  9  1  0
  9 10  1  0
 10 11  1  0
  9 11  1  0
  7 12  2  0
 12 13  1  0
 13 14  2  0
 14 15  1  0
 15 16  1  0
 16 17  1  0
 16 18  1  0
 15 19  1  0
 12 19  1  0
 19 20  2  0
  5 20  1  0
  3 21  1  0
 21 22  1  1
 21 23  1  0
M  END
>  <pIC50>  (262) 
7.30

>  <chembl_id>  (262) 
CHEMBL3655767

>  <canonical_smiles>  (262) 
CC[C@H](Nc1nc(NC2CC2)c3ncn(C(C)C)c3n1)[C@@H](C)O

$$$$
CHEMBL3655768
     RDKit          2D

 24 26  0  0  1  0  0  0  0  0999 V2000
    4.7812    4.4104    0.0000 C   0  0  0  0  0  0  0  0  0  0  0  0
    4.7812    3.5854    0.0000 C   0  0  0  0  0  0  0  0  0  0  0  0
    4.0668    3.1729    0.0000 C   0  0  0  0  0  0  0  0  0  0  0  0
    4.0668    2.3479    0.0000 N   0  0  0  0  0  0  0  0  0  0  0  0
    3.3523    1.9354    0.0000 C   0  0  0  0  0  0  0  0  0  0  0  0
    3.3523    1.1104    0.0000 N   0  0  0  0  0  0  0  0  0  0  0  0
    2.6378    0.6979    0.0000 C   0  0  0  0  0  0  0  0  0  0  0  0
    2.6378   -0.1271    0.0000 N   0  0  0  0  0  0  0  0  0  0  0  0
    3.3523   -0.5396    0.0000 C   0  0  0  0  0  0  0  0  0  0  0  0
    3.3523   -1.3646    0.0000 C   0  0  0  0  0  0  0  0  0  0  0  0
    3.7648   -2.0790    0.0000 C   0  0  0  0  0  0  0  0  0  0  0  0
    2.9398   -2.0790    0.0000 C   0  0  0  0  0  0  0  0  0  0  0  0
    1.9233    1.1104    0.0000 C   0  0  0  0  0  0  0  0  0  0  0  0
    1.1387    0.8555    0.0000 N   0  0  0  0  0  0  0  0  0  0  0  0
    0.6538    1.5229    0.0000 C   0  0  0  0  0  0  0  0  0  0  0  0
    1.1387    2.1904    0.0000 N   0  0  0  0  0  0  0  0  0  0  0  0
    0.8838    2.9750    0.0000 C   0  0  0  0  0  0  0  0  0  0  0  0
    1.4358    3.5881    0.0000 C   0  0  0  0  0  0  0  0  0  0  0  0
    0.0768    3.1465    0.0000 C   0  0  0  0  0  0  0  0  0  0  0  0
    1.9233    1.9354    0.0000 C   0  0  0  0  0  0  0  0  0  0  0  0
    2.6378    2.3479    0.0000 N   0  0  0  0  0  0  0  0  0  0  0  0
    3.3523    3.5854    0.0000 C   0  0  0  0  0  0  0  0  0  0  0  0
    2.6378    3.1729    0.0000 C   0  0  0  0  0  0  0  0  0  0  0  0
    3.3523    4.4104    0.0000 O   0  0  0  0  0  0  0  0  0  0  0  0
  1  2  1  0
  3  2  1  6
  3  4  1  0
  4  5  1  0
  5  6  2  0
  6  7  1  0
  7  8  1  0
  8  9  1  0
  9 10  1  0
 10 11  1  0
 11 12  1  0
 10 12  1  0
  7 13  2  0
 13 14  1  0
 14 15  2  0
 15 16  1  0
 16 17  1  0
 17 18  1  0
 17 19  1  0
 16 20  1  0
 13 20  1  0
 20 21  2  0
  5 21  1  0
  3 22  1  0
 22 23  1  1
 22 24  1  0
M  END
>  <pIC50>  (263) 
7.40

>  <chembl_id>  (263) 
CHEMBL3655768

>  <canonical_smiles>  (263) 
CC[C@H](Nc1nc(NCC2CC2)c3ncn(C(C)C)c3n1)[C@@H](C)O

$$$$
CHEMBL3655769
     RDKit          2D

 24 26  0  0  1  0  0  0  0  0999 V2000
    4.7812    4.4104    0.0000 C   0  0  0  0  0  0  0  0  0  0  0  0
    4.7812    3.5854    0.0000 C   0  0  0  0  0  0  0  0  0  0  0  0
    4.0668    3.1729    0.0000 C   0  0  0  0  0  0  0  0  0  0  0  0
    4.0668    2.3479    0.0000 N   0  0  0  0  0  0  0  0  0  0  0  0
    3.3523    1.9354    0.0000 C   0  0  0  0  0  0  0  0  0  0  0  0
    3.3523    1.1104    0.0000 N   0  0  0  0  0  0  0  0  0  0  0  0
    2.6378    0.6979    0.0000 C   0  0  0  0  0  0  0  0  0  0  0  0
    2.6378   -0.1271    0.0000 N   0  0  0  0  0  0  0  0  0  0  0  0
    1.9233   -0.5396    0.0000 C   0  0  0  0  0  0  0  0  0  0  0  0
    1.7098   -1.3364    0.0000 C   0  0  0  0  0  0  0  0  0  0  0  0
    0.9129   -1.1229    0.0000 C   0  0  0  0  0  0  0  0  0  0  0  0
    1.1265   -0.3260    0.0000 C   0  0  0  0  0  0  0  0  0  0  0  0
    1.9233    1.1104    0.0000 C   0  0  0  0  0  0  0  0  0  0  0  0
    1.1387    0.8555    0.0000 N   0  0  0  0  0  0  0  0  0  0  0  0
    0.6538    1.5229    0.0000 C   0  0  0  0  0  0  0  0  0  0  0  0
    1.1387    2.1904    0.0000 N   0  0  0  0  0  0  0  0  0  0  0  0
    0.8838    2.9750    0.0000 C   0  0  0  0  0  0  0  0  0  0  0  0
    1.4358    3.5881    0.0000 C   0  0  0  0  0  0  0  0  0  0  0  0
    0.0768    3.1465    0.0000 C   0  0  0  0  0  0  0  0  0  0  0  0
    1.9233    1.9354    0.0000 C   0  0  0  0  0  0  0  0  0  0  0  0
    2.6378    2.3479    0.0000 N   0  0  0  0  0  0  0  0  0  0  0  0
    3.3523    3.5854    0.0000 C   0  0  0  0  0  0  0  0  0  0  0  0
    2.6378    3.1729    0.0000 C   0  0  0  0  0  0  0  0  0  0  0  0
    3.3523    4.4104    0.0000 O   0  0  0  0  0  0  0  0  0  0  0  0
  1  2  1  0
  3  2  1  6
  3  4  1  0
  4  5  1  0
  5  6  2  0
  6  7  1  0
  7  8  1  0
  8  9  1  0
  9 10  1  0
 10 11  1  0
 11 12  1  0
  9 12  1  0
  7 13  2  0
 13 14  1  0
 14 15  2  0
 15 16  1  0
 16 17  1  0
 17 18  1  0
 17 19  1  0
 16 20  1  0
 13 20  1  0
 20 21  2  0
  5 21  1  0
  3 22  1  0
 22 23  1  1
 22 24  1  0
M  END
>  <pIC50>  (264) 
6.80

>  <chembl_id>  (264) 
CHEMBL3655769

>  <canonical_smiles>  (264) 
CC[C@H](Nc1nc(NC2CCC2)c3ncn(C(C)C)c3n1)[C@@H](C)O

$$$$
CHEMBL3655770
     RDKit          2D

 27 29  0  0  1  0  0  0  0  0999 V2000
    4.7812    4.4104    0.0000 C   0  0  0  0  0  0  0  0  0  0  0  0
    4.7812    3.5854    0.0000 C   0  0  0  0  0  0  0  0  0  0  0  0
    4.0668    3.1729    0.0000 C   0  0  0  0  0  0  0  0  0  0  0  0
    4.0668    2.3479    0.0000 N   0  0  0  0  0  0  0  0  0  0  0  0
    3.3523    1.9354    0.0000 C   0  0  0  0  0  0  0  0  0  0  0  0
    3.3523    1.1104    0.0000 N   0  0  0  0  0  0  0  0  0  0  0  0
    2.6378    0.6979    0.0000 C   0  0  0  0  0  0  0  0  0  0  0  0
    2.6378   -0.1271    0.0000 N   0  0  0  0  0  0  0  0  0  0  0  0
    3.3523   -0.5396    0.0000 C   0  0  0  0  0  0  0  0  0  0  0  0
    3.3523   -1.3646    0.0000 C   0  0  0  0  0  0  0  0  0  0  0  0
    4.0668   -1.7771    0.0000 C   0  0  0  0  0  0  0  0  0  0  0  0
    4.0668   -2.6021    0.0000 C   0  0  0  0  0  0  0  0  0  0  0  0
    3.3523   -3.0146    0.0000 N   0  0  0  0  0  0  0  0  0  0  0  0
    2.6378   -2.6021    0.0000 C   0  0  0  0  0  0  0  0  0  0  0  0
    2.6378   -1.7771    0.0000 C   0  0  0  0  0  0  0  0  0  0  0  0
    1.9233    1.1104    0.0000 C   0  0  0  0  0  0  0  0  0  0  0  0
    1.1387    0.8555    0.0000 N   0  0  0  0  0  0  0  0  0  0  0  0
    0.6538    1.5229    0.0000 C   0  0  0  0  0  0  0  0  0  0  0  0
    1.1387    2.1904    0.0000 N   0  0  0  0  0  0  0  0  0  0  0  0
    0.8838    2.9750    0.0000 C   0  0  0  0  0  0  0  0  0  0  0  0
    1.4358    3.5881    0.0000 C   0  0  0  0  0  0  0  0  0  0  0  0
    0.0768    3.1465    0.0000 C   0  0  0  0  0  0  0  0  0  0  0  0
    1.9233    1.9354    0.0000 C   0  0  0  0  0  0  0  0  0  0  0  0
    2.6378    2.3479    0.0000 N   0  0  0  0  0  0  0  0  0  0  0  0
    3.3523    3.5854    0.0000 C   0  0  0  0  0  0  0  0  0  0  0  0
    2.6378    3.1729    0.0000 C   0  0  0  0  0  0  0  0  0  0  0  0
    3.3523    4.4104    0.0000 O   0  0  0  0  0  0  0  0  0  0  0  0
  1  2  1  0
  3  2  1  6
  3  4  1  0
  4  5  1  0
  5  6  2  0
  6  7  1  0
  7  8  1  0
  8  9  1  0
  9 10  1  0
 10 11  2  0
 11 12  1  0
 12 13  2  0
 13 14  1  0
 14 15  2  0
 10 15  1  0
  7 16  2  0
 16 17  1  0
 17 18  2  0
 18 19  1  0
 19 20  1  0
 20 21  1  0
 20 22  1  0
 19 23  1  0
 16 23  1  0
 23 24  2  0
  5 24  1  0
  3 25  1  0
 25 26  1  1
 25 27  1  0
M  END
>  <pIC50>  (265) 
7.40

>  <chembl_id>  (265) 
CHEMBL3655770

>  <canonical_smiles>  (265) 
CC[C@H](Nc1nc(NCc2ccncc2)c3ncn(C(C)C)c3n1)[C@@H](C)O

$$$$
CHEMBL3655771
     RDKit          2D

 29 31  0  0  1  0  0  0  0  0999 V2000
    4.7812    4.4104    0.0000 C   0  0  0  0  0  0  0  0  0  0  0  0
    4.7812    3.5854    0.0000 C   0  0  0  0  0  0  0  0  0  0  0  0
    4.0668    3.1729    0.0000 C   0  0  0  0  0  0  0  0  0  0  0  0
    4.0668    2.3479    0.0000 N   0  0  0  0  0  0  0  0  0  0  0  0
    3.3523    1.9354    0.0000 C   0  0  0  0  0  0  0  0  0  0  0  0
    3.3523    1.1104    0.0000 N   0  0  0  0  0  0  0  0  0  0  0  0
    2.6378    0.6979    0.0000 C   0  0  0  0  0  0  0  0  0  0  0  0
    2.6378   -0.1271    0.0000 N   0  0  0  0  0  0  0  0  0  0  0  0
    3.3523   -0.5396    0.0000 C   0  0  0  0  0  0  0  0  0  0  0  0
    3.3523   -1.3646    0.0000 C   0  0  0  0  0  0  0  0  0  0  0  0
    4.0668   -1.7771    0.0000 C   0  0  0  0  0  0  0  0  0  0  0  0
    4.0668   -2.6021    0.0000 C   0  0  0  0  0  0  0  0  0  0  0  0
    4.7812   -3.0146    0.0000 C   0  0  0  0  0  0  0  0  0  0  0  0
    3.3523   -3.0146    0.0000 N   0  0  0  0  0  0  0  0  0  0  0  0
    2.6378   -2.6021    0.0000 C   0  0  0  0  0  0  0  0  0  0  0  0
    1.9233   -3.0146    0.0000 C   0  0  0  0  0  0  0  0  0  0  0  0
    2.6378   -1.7771    0.0000 C   0  0  0  0  0  0  0  0  0  0  0  0
    1.9233    1.1104    0.0000 C   0  0  0  0  0  0  0  0  0  0  0  0
    1.1387    0.8555    0.0000 N   0  0  0  0  0  0  0  0  0  0  0  0
    0.6538    1.5229    0.0000 C   0  0  0  0  0  0  0  0  0  0  0  0
    1.1387    2.1904    0.0000 N   0  0  0  0  0  0  0  0  0  0  0  0
    0.8838    2.9750    0.0000 C   0  0  0  0  0  0  0  0  0  0  0  0
    1.4358    3.5881    0.0000 C   0  0  0  0  0  0  0  0  0  0  0  0
    0.0768    3.1465    0.0000 C   0  0  0  0  0  0  0  0  0  0  0  0
    1.9233    1.9354    0.0000 C   0  0  0  0  0  0  0  0  0  0  0  0
    2.6378    2.3479    0.0000 N   0  0  0  0  0  0  0  0  0  0  0  0
    3.3523    3.5854    0.0000 C   0  0  0  0  0  0  0  0  0  0  0  0
    2.6378    3.1729    0.0000 C   0  0  0  0  0  0  0  0  0  0  0  0
    3.3523    4.4104    0.0000 O   0  0  0  0  0  0  0  0  0  0  0  0
  1  2  1  0
  3  2  1  6
  3  4  1  0
  4  5  1  0
  5  6  2  0
  6  7  1  0
  7  8  1  0
  8  9  1  0
  9 10  1  0
 10 11  2  0
 11 12  1  0
 12 13  1  0
 12 14  2  0
 14 15  1  0
 15 16  1  0
 15 17  2  0
 10 17  1  0
  7 18  2  0
 18 19  1  0
 19 20  2  0
 20 21  1  0
 21 22  1  0
 22 23  1  0
 22 24  1  0
 21 25  1  0
 18 25  1  0
 25 26  2  0
  5 26  1  0
  3 27  1  0
 27 28  1  1
 27 29  1  0
M  END
>  <pIC50>  (266) 
7.30

>  <chembl_id>  (266) 
CHEMBL3655771

>  <canonical_smiles>  (266) 
CC[C@H](Nc1nc(NCc2cc(C)nc(C)c2)c3ncn(C(C)C)c3n1)[C@@H](C)O

$$$$
CHEMBL3655772
     RDKit          2D

 31 33  0  0  1  0  0  0  0  0999 V2000
    4.7812    4.4104    0.0000 C   0  0  0  0  0  0  0  0  0  0  0  0
    4.7812    3.5854    0.0000 C   0  0  0  0  0  0  0  0  0  0  0  0
    4.0668    3.1729    0.0000 C   0  0  0  0  0  0  0  0  0  0  0  0
    4.0668    2.3479    0.0000 N   0  0  0  0  0  0  0  0  0  0  0  0
    3.3523    1.9354    0.0000 C   0  0  0  0  0  0  0  0  0  0  0  0
    3.3523    1.1104    0.0000 N   0  0  0  0  0  0  0  0  0  0  0  0
    2.6378    0.6979    0.0000 C   0  0  0  0  0  0  0  0  0  0  0  0
    2.6378   -0.1271    0.0000 N   0  0  0  0  0  0  0  0  0  0  0  0
    3.3523   -0.5396    0.0000 C   0  0  0  0  0  0  0  0  0  0  0  0
    3.3523   -1.3646    0.0000 C   0  0  0  0  0  0  0  0  0  0  0  0
    4.0668   -1.7771    0.0000 C   0  0  0  0  0  0  0  0  0  0  0  0
    4.0668   -2.6021    0.0000 C   0  0  0  0  0  0  0  0  0  0  0  0
    3.3523   -3.0146    0.0000 C   0  0  0  0  0  0  0  0  0  0  0  0
    2.6378   -2.6021    0.0000 N   0  0  0  0  0  0  0  0  0  0  0  0
    2.6378   -1.7771    0.0000 C   0  0  0  0  0  0  0  0  0  0  0  0
    3.3523   -3.8396    0.0000 C   0  0  0  0  0  0  0  0  0  0  0  0
    3.3523   -4.6646    0.0000 F   0  0  0  0  0  0  0  0  0  0  0  0
    2.5273   -3.8396    0.0000 F   0  0  0  0  0  0  0  0  0  0  0  0
    4.1773   -3.8396    0.0000 F   0  0  0  0  0  0  0  0  0  0  0  0
    1.9233    1.1104    0.0000 C   0  0  0  0  0  0  0  0  0  0  0  0
    1.1387    0.8555    0.0000 N   0  0  0  0  0  0  0  0  0  0  0  0
    0.6538    1.5229    0.0000 C   0  0  0  0  0  0  0  0  0  0  0  0
    1.1387    2.1904    0.0000 N   0  0  0  0  0  0  0  0  0  0  0  0
    0.8838    2.9750    0.0000 C   0  0  0  0  0  0  0  0  0  0  0  0
    1.4358    3.5881    0.0000 C   0  0  0  0  0  0  0  0  0  0  0  0
    0.0768    3.1465    0.0000 C   0  0  0  0  0  0  0  0  0  0  0  0
    1.9233    1.9354    0.0000 C   0  0  0  0  0  0  0  0  0  0  0  0
    2.6378    2.3479    0.0000 N   0  0  0  0  0  0  0  0  0  0  0  0
    3.3523    3.5854    0.0000 C   0  0  0  0  0  0  0  0  0  0  0  0
    2.6378    3.1729    0.0000 C   0  0  0  0  0  0  0  0  0  0  0  0
    3.3523    4.4104    0.0000 O   0  0  0  0  0  0  0  0  0  0  0  0
  1  2  1  0
  3  2  1  6
  3  4  1  0
  4  5  1  0
  5  6  2  0
  6  7  1  0
  7  8  1  0
  8  9  1  0
  9 10  1  0
 10 11  2  0
 11 12  1  0
 12 13  2  0
 13 14  1  0
 14 15  2  0
 10 15  1  0
 13 16  1  0
 16 17  1  0
 16 18  1  0
 16 19  1  0
  7 20  2  0
 20 21  1  0
 21 22  2  0
 22 23  1  0
 23 24  1  0
 24 25  1  0
 24 26  1  0
 23 27  1  0
 20 27  1  0
 27 28  2  0
  5 28  1  0
  3 29  1  0
 29 30  1  1
 29 31  1  0
M  END
>  <pIC50>  (267) 
7.40

>  <chembl_id>  (267) 
CHEMBL3655772

>  <canonical_smiles>  (267) 
CC[C@H](Nc1nc(NCc2ccc(nc2)C(F)(F)F)c3ncn(C(C)C)c3n1)[C@@H](C)O

$$$$
CHEMBL3655773
     RDKit          2D

 28 30  0  0  1  0  0  0  0  0999 V2000
    4.7812    4.4104    0.0000 C   0  0  0  0  0  0  0  0  0  0  0  0
    4.7812    3.5854    0.0000 C   0  0  0  0  0  0  0  0  0  0  0  0
    4.0668    3.1729    0.0000 C   0  0  0  0  0  0  0  0  0  0  0  0
    4.0668    2.3479    0.0000 N   0  0  0  0  0  0  0  0  0  0  0  0
    3.3523    1.9354    0.0000 C   0  0  0  0  0  0  0  0  0  0  0  0
    3.3523    1.1104    0.0000 N   0  0  0  0  0  0  0  0  0  0  0  0
    2.6378    0.6979    0.0000 C   0  0  0  0  0  0  0  0  0  0  0  0
    2.6378   -0.1271    0.0000 N   0  0  0  0  0  0  0  0  0  0  0  0
    3.3523   -0.5396    0.0000 C   0  0  0  0  0  0  0  0  0  0  0  0
    3.3523   -1.3646    0.0000 C   0  0  0  0  0  0  0  0  0  0  0  0
    4.0668   -1.7771    0.0000 C   0  0  0  0  0  0  0  0  0  0  0  0
    4.0668   -2.6021    0.0000 C   0  0  0  0  0  0  0  0  0  0  0  0
    3.3523   -3.0146    0.0000 C   0  0  0  0  0  0  0  0  0  0  0  0
    2.6378   -2.6021    0.0000 C   0  0  0  0  0  0  0  0  0  0  0  0
    1.9233   -3.0146    0.0000 C   0  0  0  0  0  0  0  0  0  0  0  0
    2.6378   -1.7771    0.0000 N   0  0  0  0  0  0  0  0  0  0  0  0
    1.9233    1.1104    0.0000 C   0  0  0  0  0  0  0  0  0  0  0  0
    1.1387    0.8555    0.0000 N   0  0  0  0  0  0  0  0  0  0  0  0
    0.6538    1.5229    0.0000 C   0  0  0  0  0  0  0  0  0  0  0  0
    1.1387    2.1904    0.0000 N   0  0  0  0  0  0  0  0  0  0  0  0
    0.8838    2.9750    0.0000 C   0  0  0  0  0  0  0  0  0  0  0  0
    1.4358    3.5881    0.0000 C   0  0  0  0  0  0  0  0  0  0  0  0
    0.0768    3.1465    0.0000 C   0  0  0  0  0  0  0  0  0  0  0  0
    1.9233    1.9354    0.0000 C   0  0  0  0  0  0  0  0  0  0  0  0
    2.6378    2.3479    0.0000 N   0  0  0  0  0  0  0  0  0  0  0  0
    3.3523    3.5854    0.0000 C   0  0  0  0  0  0  0  0  0  0  0  0
    2.6378    3.1729    0.0000 C   0  0  0  0  0  0  0  0  0  0  0  0
    3.3523    4.4104    0.0000 O   0  0  0  0  0  0  0  0  0  0  0  0
  1  2  1  0
  3  2  1  6
  3  4  1  0
  4  5  1  0
  5  6  2  0
  6  7  1  0
  7  8  1  0
  8  9  1  0
  9 10  1  0
 10 11  2  0
 11 12  1  0
 12 13  2  0
 13 14  1  0
 14 15  1  0
 14 16  2  0
 10 16  1  0
  7 17  2  0
 17 18  1  0
 18 19  2  0
 19 20  1  0
 20 21  1  0
 21 22  1  0
 21 23  1  0
 20 24  1  0
 17 24  1  0
 24 25  2  0
  5 25  1  0
  3 26  1  0
 26 27  1  1
 26 28  1  0
M  END
>  <pIC50>  (268) 
7.30

>  <chembl_id>  (268) 
CHEMBL3655773

>  <canonical_smiles>  (268) 
CC[C@H](Nc1nc(NCc2cccc(C)n2)c3ncn(C(C)C)c3n1)[C@@H](C)O

$$$$
CHEMBL3655774
     RDKit          2D

 28 30  0  0  1  0  0  0  0  0999 V2000
    4.7812    4.4104    0.0000 C   0  0  0  0  0  0  0  0  0  0  0  0
    4.7812    3.5854    0.0000 C   0  0  0  0  0  0  0  0  0  0  0  0
    4.0668    3.1729    0.0000 C   0  0  0  0  0  0  0  0  0  0  0  0
    4.0668    2.3479    0.0000 N   0  0  0  0  0  0  0  0  0  0  0  0
    3.3523    1.9354    0.0000 C   0  0  0  0  0  0  0  0  0  0  0  0
    3.3523    1.1104    0.0000 N   0  0  0  0  0  0  0  0  0  0  0  0
    2.6378    0.6979    0.0000 C   0  0  0  0  0  0  0  0  0  0  0  0
    2.6378   -0.1271    0.0000 N   0  0  0  0  0  0  0  0  0  0  0  0
    3.3523   -0.5396    0.0000 C   0  0  0  0  0  0  0  0  0  0  0  0
    3.3523   -1.3646    0.0000 C   0  0  0  0  0  0  0  0  0  0  0  0
    4.0668   -1.7771    0.0000 N   0  0  0  0  0  0  0  0  0  0  0  0
    4.0668   -2.6021    0.0000 C   0  0  0  0  0  0  0  0  0  0  0  0
    3.3523   -3.0146    0.0000 C   0  0  0  0  0  0  0  0  0  0  0  0
    2.6378   -2.6021    0.0000 C   0  0  0  0  0  0  0  0  0  0  0  0
    2.6378   -1.7771    0.0000 C   0  0  0  0  0  0  0  0  0  0  0  0
    1.9233   -1.3646    0.0000 C   0  0  0  0  0  0  0  0  0  0  0  0
    1.9233    1.1104    0.0000 C   0  0  0  0  0  0  0  0  0  0  0  0
    1.1387    0.8555    0.0000 N   0  0  0  0  0  0  0  0  0  0  0  0
    0.6538    1.5229    0.0000 C   0  0  0  0  0  0  0  0  0  0  0  0
    1.1387    2.1904    0.0000 N   0  0  0  0  0  0  0  0  0  0  0  0
    0.8838    2.9750    0.0000 C   0  0  0  0  0  0  0  0  0  0  0  0
    1.4358    3.5881    0.0000 C   0  0  0  0  0  0  0  0  0  0  0  0
    0.0768    3.1465    0.0000 C   0  0  0  0  0  0  0  0  0  0  0  0
    1.9233    1.9354    0.0000 C   0  0  0  0  0  0  0  0  0  0  0  0
    2.6378    2.3479    0.0000 N   0  0  0  0  0  0  0  0  0  0  0  0
    3.3523    3.5854    0.0000 C   0  0  0  0  0  0  0  0  0  0  0  0
    2.6378    3.1729    0.0000 C   0  0  0  0  0  0  0  0  0  0  0  0
    3.3523    4.4104    0.0000 O   0  0  0  0  0  0  0  0  0  0  0  0
  1  2  1  0
  3  2  1  6
  3  4  1  0
  4  5  1  0
  5  6  2  0
  6  7  1  0
  7  8  1  0
  8  9  1  0
  9 10  1  0
 10 11  2  0
 11 12  1  0
 12 13  2  0
 13 14  1  0
 14 15  2  0
 10 15  1  0
 15 16  1  0
  7 17  2  0
 17 18  1  0
 18 19  2  0
 19 20  1  0
 20 21  1  0
 21 22  1  0
 21 23  1  0
 20 24  1  0
 17 24  1  0
 24 25  2  0
  5 25  1  0
  3 26  1  0
 26 27  1  1
 26 28  1  0
M  END
>  <pIC50>  (269) 
6.11

>  <chembl_id>  (269) 
CHEMBL3655774

>  <canonical_smiles>  (269) 
CC[C@H](Nc1nc(NCc2ncccc2C)c3ncn(C(C)C)c3n1)[C@@H](C)O

$$$$
CHEMBL3655775
     RDKit          2D

 25 27  0  0  1  0  0  0  0  0999 V2000
    4.7812    4.4104    0.0000 C   0  0  0  0  0  0  0  0  0  0  0  0
    4.7812    3.5854    0.0000 C   0  0  0  0  0  0  0  0  0  0  0  0
    5.4957    3.1729    0.0000 O   0  0  0  0  0  0  0  0  0  0  0  0
    4.0668    3.1729    0.0000 C   0  0  0  0  0  0  0  0  0  0  0  0
    4.0668    2.3479    0.0000 N   0  0  0  0  0  0  0  0  0  0  0  0
    3.3523    1.9354    0.0000 C   0  0  0  0  0  0  0  0  0  0  0  0
    3.3523    1.1104    0.0000 N   0  0  0  0  0  0  0  0  0  0  0  0
    2.6378    0.6979    0.0000 C   0  0  0  0  0  0  0  0  0  0  0  0
    2.6378   -0.1271    0.0000 N   0  0  0  0  0  0  0  0  0  0  0  0
    3.3523   -0.5396    0.0000 C   0  0  0  0  0  0  0  0  0  0  0  0
    3.3523   -1.3646    0.0000 C   0  0  0  0  0  0  0  0  0  0  0  0
    4.0668   -1.7771    0.0000 C   0  0  0  0  0  0  0  0  0  0  0  0
    4.0668   -2.6021    0.0000 C   0  0  0  0  0  0  0  0  0  0  0  0
    3.3523   -3.0146    0.0000 C   0  0  0  0  0  0  0  0  0  0  0  0
    2.6378   -2.6021    0.0000 N   0  0  0  0  0  0  0  0  0  0  0  0
    2.6378   -1.7771    0.0000 C   0  0  0  0  0  0  0  0  0  0  0  0
    1.9233    1.1104    0.0000 C   0  0  0  0  0  0  0  0  0  0  0  0
    1.1387    0.8555    0.0000 N   0  0  0  0  0  0  0  0  0  0  0  0
    0.6538    1.5229    0.0000 C   0  0  0  0  0  0  0  0  0  0  0  0
    1.1387    2.1904    0.0000 N   0  0  0  0  0  0  0  0  0  0  0  0
    0.8838    2.9750    0.0000 C   0  0  0  0  0  0  0  0  0  0  0  0
    1.4358    3.5881    0.0000 C   0  0  0  0  0  0  0  0  0  0  0  0
    0.0768    3.1465    0.0000 C   0  0  0  0  0  0  0  0  0  0  0  0
    1.9233    1.9354    0.0000 C   0  0  0  0  0  0  0  0  0  0  0  0
    2.6378    2.3479    0.0000 N   0  0  0  0  0  0  0  0  0  0  0  0
  2  1  1  1
  2  3  1  0
  2  4  1  0
  4  5  1  0
  5  6  1  0
  6  7  2  0
  7  8  1  0
  8  9  1  0
  9 10  1  0
 10 11  1  0
 11 12  2  0
 12 13  1  0
 13 14  2  0
 14 15  1  0
 15 16  2  0
 11 16  1  0
  8 17  2  0
 17 18  1  0
 18 19  2  0
 19 20  1  0
 20 21  1  0
 21 22  1  0
 21 23  1  0
 20 24  1  0
 17 24  1  0
 24 25  2  0
  6 25  1  0
M  END
>  <pIC50>  (270) 
6.54

>  <chembl_id>  (270) 
CHEMBL3655775

>  <canonical_smiles>  (270) 
C[C@@H](O)CNc1nc(NCc2cccnc2)c3ncn(C(C)C)c3n1

$$$$
CHEMBL3655776
     RDKit          2D

 28 30  0  0  0  0  0  0  0  0999 V2000
    1.4358   -2.7631    0.0000 C   0  0  0  0  0  0  0  0  0  0  0  0
    0.8838   -2.1500    0.0000 C   0  0  0  0  0  0  0  0  0  0  0  0
    0.0768   -2.3215    0.0000 C   0  0  0  0  0  0  0  0  0  0  0  0
    1.1387   -1.3654    0.0000 N   0  0  0  0  0  0  0  0  0  0  0  0
    0.6538   -0.6979    0.0000 C   0  0  0  0  0  0  0  0  0  0  0  0
    1.1387   -0.0305    0.0000 N   0  0  0  0  0  0  0  0  0  0  0  0
    1.9233   -0.2854    0.0000 C   0  0  0  0  0  0  0  0  0  0  0  0
    2.6378    0.1271    0.0000 C   0  0  0  0  0  0  0  0  0  0  0  0
    2.6378    0.9521    0.0000 N   0  0  0  0  0  0  0  0  0  0  0  0
    1.9233    1.3646    0.0000 C   0  0  0  0  0  0  0  0  0  0  0  0
    1.9233    2.1896    0.0000 C   0  0  0  0  0  0  0  0  0  0  0  0
    1.2089    2.6021    0.0000 C   0  0  0  0  0  0  0  0  0  0  0  0
    1.2089    3.4271    0.0000 C   0  0  0  0  0  0  0  0  0  0  0  0
    1.9233    3.8396    0.0000 C   0  0  0  0  0  0  0  0  0  0  0  0
    2.6378    3.4271    0.0000 N   0  0  0  0  0  0  0  0  0  0  0  0
    2.6378    2.6021    0.0000 C   0  0  0  0  0  0  0  0  0  0  0  0
    3.3523   -0.2854    0.0000 N   0  0  0  0  0  0  0  0  0  0  0  0
    3.3523   -1.1104    0.0000 C   0  0  0  0  0  0  0  0  0  0  0  0
    4.0668   -1.5229    0.0000 N   0  0  0  0  0  0  0  0  0  0  0  0
    4.7812   -1.1104    0.0000 C   0  0  0  0  0  0  0  0  0  0  0  0
    5.4957   -1.5229    0.0000 C   0  0  0  0  0  0  0  0  0  0  0  0
    5.4957   -2.3479    0.0000 O   0  0  0  0  0  0  0  0  0  0  0  0
    6.2102   -1.1104    0.0000 C   0  0  0  0  0  0  0  0  0  0  0  0
    6.9246   -0.6979    0.0000 F   0  0  0  0  0  0  0  0  0  0  0  0
    6.6227   -1.8249    0.0000 F   0  0  0  0  0  0  0  0  0  0  0  0
    5.7977   -0.3960    0.0000 F   0  0  0  0  0  0  0  0  0  0  0  0
    2.6378   -1.5229    0.0000 N   0  0  0  0  0  0  0  0  0  0  0  0
    1.9233   -1.1104    0.0000 C   0  0  0  0  0  0  0  0  0  0  0  0
  1  2  1  0
  2  3  1  0
  2  4  1  0
  4  5  1  0
  5  6  2  0
  6  7  1  0
  7  8  2  0
  8  9  1  0
  9 10  1  0
 10 11  1  0
 11 12  2  0
 12 13  1  0
 13 14  2  0
 14 15  1  0
 15 16  2  0
 11 16  1  0
  8 17  1  0
 17 18  2  0
 18 19  1  0
 19 20  1  0
 20 21  1  0
 21 22  1  0
 21 23  1  0
 23 24  1  0
 23 25  1  0
 23 26  1  0
 18 27  1  0
 27 28  2  0
  4 28  1  0
  7 28  1  0
M  END
>  <pIC50>  (271) 
6.24

>  <chembl_id>  (271) 
CHEMBL3655776

>  <canonical_smiles>  (271) 
CC(C)n1cnc2c(NCc3cccnc3)nc(NCC(O)C(F)(F)F)nc12

$$$$
CHEMBL3655777
     RDKit          2D

 30 32  0  0  0  0  0  0  0  0999 V2000
    3.3523    4.4104    0.0000 C   0  0  0  0  0  0  0  0  0  0  0  0
    3.3523    3.5854    0.0000 C   0  0  0  0  0  0  0  0  0  0  0  0
    4.0668    3.1729    0.0000 C   0  0  0  0  0  0  0  0  0  0  0  0
    4.0668    2.3479    0.0000 N   0  0  0  0  0  0  0  0  0  0  0  0
    3.3523    1.9354    0.0000 C   0  0  0  0  0  0  0  0  0  0  0  0
    3.3523    1.1104    0.0000 N   0  0  0  0  0  0  0  0  0  0  0  0
    2.6378    0.6979    0.0000 C   0  0  0  0  0  0  0  0  0  0  0  0
    2.6378   -0.1271    0.0000 N   0  0  0  0  0  0  0  0  0  0  0  0
    1.9233   -0.5396    0.0000 C   0  0  0  0  0  0  0  0  0  0  0  0
    1.9233   -1.3646    0.0000 C   0  0  0  0  0  0  0  0  0  0  0  0
    2.6378   -1.7771    0.0000 C   0  0  0  0  0  0  0  0  0  0  0  0
    2.6378   -2.6021    0.0000 C   0  0  0  0  0  0  0  0  0  0  0  0
    1.9233   -3.0146    0.0000 C   0  0  0  0  0  0  0  0  0  0  0  0
    1.2089   -2.6021    0.0000 N   0  0  0  0  0  0  0  0  0  0  0  0
    1.2089   -1.7771    0.0000 C   0  0  0  0  0  0  0  0  0  0  0  0
    1.9233    1.1104    0.0000 C   0  0  0  0  0  0  0  0  0  0  0  0
    1.1387    0.8555    0.0000 N   0  0  0  0  0  0  0  0  0  0  0  0
    0.6538    1.5229    0.0000 C   0  0  0  0  0  0  0  0  0  0  0  0
    1.1387    2.1904    0.0000 N   0  0  0  0  0  0  0  0  0  0  0  0
    0.8838    2.9750    0.0000 C   0  0  0  0  0  0  0  0  0  0  0  0
    1.4358    3.5881    0.0000 C   0  0  0  0  0  0  0  0  0  0  0  0
    0.0768    3.1465    0.0000 C   0  0  0  0  0  0  0  0  0  0  0  0
    1.9233    1.9354    0.0000 C   0  0  0  0  0  0  0  0  0  0  0  0
    2.6378    2.3479    0.0000 N   0  0  0  0  0  0  0  0  0  0  0  0
    4.7812    3.5854    0.0000 C   0  0  0  0  0  0  0  0  0  0  0  0
    5.4957    3.1729    0.0000 O   0  0  0  0  0  0  0  0  0  0  0  0
    4.7812    4.4104    0.0000 C   0  0  0  0  0  0  0  0  0  0  0  0
    4.7812    5.2354    0.0000 F   0  0  0  0  0  0  0  0  0  0  0  0
    5.6062    4.4104    0.0000 F   0  0  0  0  0  0  0  0  0  0  0  0
    3.9562    4.4104    0.0000 F   0  0  0  0  0  0  0  0  0  0  0  0
  1  2  1  0
  2  3  1  0
  3  4  1  0
  4  5  1  0
  5  6  2  0
  6  7  1  0
  7  8  1  0
  8  9  1  0
  9 10  1  0
 10 11  2  0
 11 12  1  0
 12 13  2  0
 13 14  1  0
 14 15  2  0
 10 15  1  0
  7 16  2  0
 16 17  1  0
 17 18  2  0
 18 19  1  0
 19 20  1  0
 20 21  1  0
 20 22  1  0
 19 23  1  0
 16 23  1  0
 23 24  2  0
  5 24  1  0
  3 25  1  0
 25 26  1  0
 25 27  1  0
 27 28  1  0
 27 29  1  0
 27 30  1  0
M  END
>  <pIC50>  (272) 
7.05

>  <chembl_id>  (272) 
CHEMBL3655777

>  <canonical_smiles>  (272) 
CCC(Nc1nc(NCc2cccnc2)c3ncn(C(C)C)c3n1)C(O)C(F)(F)F

$$$$
CHEMBL3658023
     RDKit          2D

 35 39  0  0  0  0  0  0  0  0999 V2000
   -1.4087    0.0165    0.0000 C   0  0  0  0  0  0  0  0  0  0  0  0
   -0.5837    0.0165    0.0000 N   0  0  0  0  0  0  0  0  0  0  0  0
   -0.1712    0.7310    0.0000 C   0  0  0  0  0  0  0  0  0  0  0  0
   -0.1712   -0.6979    0.0000 C   0  0  0  0  0  0  0  0  0  0  0  0
   -0.5837   -1.4124    0.0000 O   0  0  0  0  0  0  0  0  0  0  0  0
    0.6538   -0.6979    0.0000 C   0  0  0  0  0  0  0  0  0  0  0  0
    1.1387   -0.0305    0.0000 C   0  0  0  0  0  0  0  0  0  0  0  0
    1.9233   -0.2854    0.0000 C   0  0  0  0  0  0  0  0  0  0  0  0
    2.6378    0.1271    0.0000 C   0  0  0  0  0  0  0  0  0  0  0  0
    3.3523   -0.2854    0.0000 N   0  0  0  0  0  0  0  0  0  0  0  0
    3.3523   -1.1104    0.0000 C   0  0  0  0  0  0  0  0  0  0  0  0
    4.0668   -1.5229    0.0000 N   0  0  0  0  0  0  0  0  0  0  0  0
    4.0668   -2.3479    0.0000 C   0  0  0  0  0  0  0  0  0  0  0  0
    4.7812   -2.7604    0.0000 C   0  0  0  0  0  0  0  0  0  0  0  0
    4.7812   -3.5854    0.0000 C   0  0  0  0  0  0  0  0  0  0  0  0
    4.0668   -3.9979    0.0000 C   0  0  0  0  0  0  0  0  0  0  0  0
    3.3523   -3.5854    0.0000 C   0  0  0  0  0  0  0  0  0  0  0  0
    3.3523   -2.7604    0.0000 N   0  0  0  0  0  0  0  0  0  0  0  0
    4.0668   -4.8229    0.0000 N   0  0  0  0  0  0  0  0  0  0  0  0
    4.7812   -5.2354    0.0000 C   0  0  0  0  0  0  0  0  0  0  0  0
    4.7812   -6.0604    0.0000 C   0  0  0  0  0  0  0  0  0  0  0  0
    4.0668   -6.4729    0.0000 C   0  0  0  0  0  0  0  0  0  0  0  0
    4.0668   -7.2979    0.0000 C   0  0  0  0  0  0  0  0  0  0  0  0
    4.7812   -7.7104    0.0000 C   0  0  0  0  0  0  0  0  0  0  0  0
    5.4957   -7.2979    0.0000 O   0  0  0  0  0  0  0  0  0  0  0  0
    3.3523   -6.0604    0.0000 C   0  0  0  0  0  0  0  0  0  0  0  0
    3.3523   -5.2354    0.0000 C   0  0  0  0  0  0  0  0  0  0  0  0
    2.6378   -1.5229    0.0000 N   0  0  0  0  0  0  0  0  0  0  0  0
    1.9233   -1.1104    0.0000 C   0  0  0  0  0  0  0  0  0  0  0  0
    1.1387   -1.3654    0.0000 N   0  0  0  0  0  0  0  0  0  0  0  0
    0.8838   -2.1500    0.0000 C   0  0  0  0  0  0  0  0  0  0  0  0
    1.3687   -2.8174    0.0000 C   0  0  0  0  0  0  0  0  0  0  0  0
    0.8838   -3.4849    0.0000 C   0  0  0  0  0  0  0  0  0  0  0  0
    0.0992   -3.2299    0.0000 C   0  0  0  0  0  0  0  0  0  0  0  0
    0.0992   -2.4049    0.0000 C   0  0  0  0  0  0  0  0  0  0  0  0
  1  2  1  0
  2  3  1  0
  2  4  1  0
  4  5  2  0
  4  6  1  0
  6  7  2  0
  7  8  1  0
  8  9  2  0
  9 10  1  0
 10 11  2  0
 11 12  1  0
 12 13  1  0
 13 14  2  0
 14 15  1  0
 15 16  2  0
 16 17  1  0
 17 18  2  0
 13 18  1  0
 16 19  1  0
 19 20  1  0
 20 21  1  0
 21 22  1  0
 22 23  1  0
 23 24  1  0
 24 25  1  0
 22 26  1  0
 26 27  1  0
 19 27  1  0
 11 28  1  0
 28 29  2  0
  8 29  1  0
 29 30  1  0
  6 30  1  0
 30 31  1  0
 31 32  1  0
 32 33  1  0
 33 34  1  0
 34 35  1  0
 31 35  1  0
M  END
>  <pIC50>  (273) 
5.54

>  <chembl_id>  (273) 
CHEMBL3658023

>  <canonical_smiles>  (273) 
CN(C)C(=O)c1cc2cnc(Nc3ccc(cn3)N4CCC(CCO)CC4)nc2n1C5CCCC5

$$$$
CHEMBL3658028
     RDKit          2D

 33 36  0  0  0  0  0  0  0  0999 V2000
   -1.4087    0.0165    0.0000 C   0  0  0  0  0  0  0  0  0  0  0  0
   -0.5837    0.0165    0.0000 N   0  0  0  0  0  0  0  0  0  0  0  0
   -0.1712    0.7310    0.0000 C   0  0  0  0  0  0  0  0  0  0  0  0
   -0.1712   -0.6979    0.0000 C   0  0  0  0  0  0  0  0  0  0  0  0
   -0.5837   -1.4124    0.0000 O   0  0  0  0  0  0  0  0  0  0  0  0
    0.6538   -0.6979    0.0000 C   0  0  0  0  0  0  0  0  0  0  0  0
    1.1387   -0.0305    0.0000 C   0  0  0  0  0  0  0  0  0  0  0  0
    1.9233   -0.2854    0.0000 C   0  0  0  0  0  0  0  0  0  0  0  0
    2.6378    0.1271    0.0000 C   0  0  0  0  0  0  0  0  0  0  0  0
    3.3523   -0.2854    0.0000 N   0  0  0  0  0  0  0  0  0  0  0  0
    3.3523   -1.1104    0.0000 C   0  0  0  0  0  0  0  0  0  0  0  0
    4.0668   -1.5229    0.0000 N   0  0  0  0  0  0  0  0  0  0  0  0
    4.7812   -1.1104    0.0000 C   0  0  0  0  0  0  0  0  0  0  0  0
    4.7812   -0.2854    0.0000 C   0  0  0  0  0  0  0  0  0  0  0  0
    5.4957    0.1271    0.0000 C   0  0  0  0  0  0  0  0  0  0  0  0
    6.2102   -0.2854    0.0000 C   0  0  0  0  0  0  0  0  0  0  0  0
    6.2102   -1.1104    0.0000 C   0  0  0  0  0  0  0  0  0  0  0  0
    5.4957   -1.5229    0.0000 N   0  0  0  0  0  0  0  0  0  0  0  0
    6.9246    0.1271    0.0000 C   0  0  0  0  0  0  0  0  0  0  0  0
    6.9246    0.9521    0.0000 O   0  0  0  0  0  0  0  0  0  0  0  0
    7.6391   -0.2854    0.0000 N   0  0  0  0  0  0  0  0  0  0  0  0
    7.6391   -1.1104    0.0000 C   0  0  0  0  0  0  0  0  0  0  0  0
    8.3536    0.1271    0.0000 C   0  0  0  0  0  0  0  0  0  0  0  0
    9.0681   -0.2854    0.0000 C   0  0  0  0  0  0  0  0  0  0  0  0
    9.7825    0.1271    0.0000 N   0  0  0  0  0  0  0  0  0  0  0  0
    2.6378   -1.5229    0.0000 N   0  0  0  0  0  0  0  0  0  0  0  0
    1.9233   -1.1104    0.0000 C   0  0  0  0  0  0  0  0  0  0  0  0
    1.1387   -1.3654    0.0000 N   0  0  0  0  0  0  0  0  0  0  0  0
    0.8838   -2.1500    0.0000 C   0  0  0  0  0  0  0  0  0  0  0  0
    1.3687   -2.8174    0.0000 C   0  0  0  0  0  0  0  0  0  0  0  0
    0.8838   -3.4849    0.0000 C   0  0  0  0  0  0  0  0  0  0  0  0
    0.0992   -3.2299    0.0000 C   0  0  0  0  0  0  0  0  0  0  0  0
    0.0992   -2.4049    0.0000 C   0  0  0  0  0  0  0  0  0  0  0  0
  1  2  1  0
  2  3  1  0
  2  4  1  0
  4  5  2  0
  4  6  1  0
  6  7  2  0
  7  8  1  0
  8  9  2  0
  9 10  1  0
 10 11  2  0
 11 12  1  0
 12 13  1  0
 13 14  2  0
 14 15  1  0
 15 16  2  0
 16 17  1  0
 17 18  2  0
 13 18  1  0
 16 19  1  0
 19 20  2  0
 19 21  1  0
 21 22  1  0
 21 23  1  0
 23 24  1  0
 24 25  1  0
 11 26  1  0
 26 27  2  0
  8 27  1  0
 27 28  1  0
  6 28  1  0
 28 29  1  0
 29 30  1  0
 30 31  1  0
 31 32  1  0
 32 33  1  0
 29 33  1  0
M  END
>  <pIC50>  (274) 
5.33

>  <chembl_id>  (274) 
CHEMBL3658028

>  <canonical_smiles>  (274) 
CN(C)C(=O)c1cc2cnc(Nc3ccc(cn3)C(=O)N(C)CCN)nc2n1C4CCCC4

$$$$
CHEMBL3658032
     RDKit          2D

 39 43  0  0  0  0  0  0  0  0999 V2000
   -1.4087    0.0165    0.0000 C   0  0  0  0  0  0  0  0  0  0  0  0
   -0.5837    0.0165    0.0000 N   0  0  0  0  0  0  0  0  0  0  0  0
   -0.1712    0.7310    0.0000 C   0  0  0  0  0  0  0  0  0  0  0  0
   -0.1712   -0.6979    0.0000 C   0  0  0  0  0  0  0  0  0  0  0  0
   -0.5837   -1.4124    0.0000 O   0  0  0  0  0  0  0  0  0  0  0  0
    0.6538   -0.6979    0.0000 C   0  0  0  0  0  0  0  0  0  0  0  0
    1.1387   -0.0305    0.0000 C   0  0  0  0  0  0  0  0  0  0  0  0
    1.9233   -0.2854    0.0000 C   0  0  0  0  0  0  0  0  0  0  0  0
    2.6378    0.1271    0.0000 C   0  0  0  0  0  0  0  0  0  0  0  0
    3.3523   -0.2854    0.0000 N   0  0  0  0  0  0  0  0  0  0  0  0
    3.3523   -1.1104    0.0000 C   0  0  0  0  0  0  0  0  0  0  0  0
    4.0668   -1.5229    0.0000 N   0  0  0  0  0  0  0  0  0  0  0  0
    4.7812   -1.1104    0.0000 C   0  0  0  0  0  0  0  0  0  0  0  0
    4.7812   -0.2854    0.0000 C   0  0  0  0  0  0  0  0  0  0  0  0
    5.4957    0.1271    0.0000 C   0  0  0  0  0  0  0  0  0  0  0  0
    6.2102   -0.2854    0.0000 C   0  0  0  0  0  0  0  0  0  0  0  0
    6.2102   -1.1104    0.0000 N   0  0  0  0  0  0  0  0  0  0  0  0
    5.4957   -1.5229    0.0000 N   0  0  0  0  0  0  0  0  0  0  0  0
    6.9246    0.1271    0.0000 N   0  0  0  0  0  0  0  0  0  0  0  0
    6.9246    0.9521    0.0000 C   0  0  0  0  0  0  0  0  0  0  0  0
    7.6391    1.3646    0.0000 C   0  0  0  0  0  0  0  0  0  0  0  0
    8.3536    0.9521    0.0000 N   0  0  0  0  0  0  0  0  0  0  0  0
    8.3536    0.1271    0.0000 C   0  0  0  0  0  0  0  0  0  0  0  0
    7.6391   -0.2854    0.0000 C   0  0  0  0  0  0  0  0  0  0  0  0
    9.0681    1.3646    0.0000 C   0  0  0  0  0  0  0  0  0  0  0  0
    9.0681    2.1896    0.0000 O   0  0  0  0  0  0  0  0  0  0  0  0
    9.7825    0.9521    0.0000 O   0  0  0  0  0  0  0  0  0  0  0  0
   10.4970    1.3646    0.0000 C   0  0  0  0  0  0  0  0  0  0  0  0
   11.2115    1.7771    0.0000 C   0  0  0  0  0  0  0  0  0  0  0  0
   10.9095    0.6501    0.0000 C   0  0  0  0  0  0  0  0  0  0  0  0
   10.0845    2.0790    0.0000 C   0  0  0  0  0  0  0  0  0  0  0  0
    2.6378   -1.5229    0.0000 N   0  0  0  0  0  0  0  0  0  0  0  0
    1.9233   -1.1104    0.0000 C   0  0  0  0  0  0  0  0  0  0  0  0
    1.1387   -1.3654    0.0000 N   0  0  0  0  0  0  0  0  0  0  0  0
    0.8838   -2.1500    0.0000 C   0  0  0  0  0  0  0  0  0  0  0  0
    1.3687   -2.8174    0.0000 C   0  0  0  0  0  0  0  0  0  0  0  0
    0.8838   -3.4849    0.0000 C   0  0  0  0  0  0  0  0  0  0  0  0
    0.0992   -3.2299    0.0000 C   0  0  0  0  0  0  0  0  0  0  0  0
    0.0992   -2.4049    0.0000 C   0  0  0  0  0  0  0  0  0  0  0  0
  1  2  1  0
  2  3  1  0
  2  4  1  0
  4  5  2  0
  4  6  1  0
  6  7  2  0
  7  8  1  0
  8  9  2  0
  9 10  1  0
 10 11  2  0
 11 12  1  0
 12 13  1  0
 13 14  2  0
 14 15  1  0
 15 16  2  0
 16 17  1  0
 17 18  2  0
 13 18  1  0
 16 19  1  0
 19 20  1  0
 20 21  1  0
 21 22  1  0
 22 23  1  0
 23 24  1  0
 19 24  1  0
 22 25  1  0
 25 26  2  0
 25 27  1  0
 27 28  1  0
 28 29  1  0
 28 30  1  0
 28 31  1  0
 11 32  1  0
 32 33  2  0
  8 33  1  0
 33 34  1  0
  6 34  1  0
 34 35  1  0
 35 36  1  0
 36 37  1  0
 37 38  1  0
 38 39  1  0
 35 39  1  0
M  END
>  <pIC50>  (275) 
4.70

>  <chembl_id>  (275) 
CHEMBL3658032

>  <canonical_smiles>  (275) 
CN(C)C(=O)c1cc2cnc(Nc3ccc(nn3)N4CCN(CC4)C(=O)OC(C)(C)C)nc2n1C5CCCC5

$$$$
CHEMBL3658034
     RDKit          2D

 32 36  0  0  0  0  0  0  0  0999 V2000
    9.7825   -0.1271    0.0000 C   0  0  0  0  0  0  0  0  0  0  0  0
    9.0681   -0.5396    0.0000 N   0  0  0  0  0  0  0  0  0  0  0  0
    9.0681   -1.3646    0.0000 C   0  0  0  0  0  0  0  0  0  0  0  0
    8.3536   -0.1271    0.0000 C   0  0  0  0  0  0  0  0  0  0  0  0
    7.6391   -0.5396    0.0000 C   0  0  0  0  0  0  0  0  0  0  0  0
    6.9246   -0.1271    0.0000 C   0  0  0  0  0  0  0  0  0  0  0  0
    6.9246    0.6979    0.0000 N   0  0  0  0  0  0  0  0  0  0  0  0
    7.6391    1.1104    0.0000 C   0  0  0  0  0  0  0  0  0  0  0  0
    8.3536    0.6979    0.0000 C   0  0  0  0  0  0  0  0  0  0  0  0
    6.2102    1.1104    0.0000 C   0  0  0  0  0  0  0  0  0  0  0  0
    5.4957    0.6979    0.0000 C   0  0  0  0  0  0  0  0  0  0  0  0
    4.7812    1.1104    0.0000 C   0  0  0  0  0  0  0  0  0  0  0  0
    4.7812    1.9354    0.0000 C   0  0  0  0  0  0  0  0  0  0  0  0
    4.0668    2.3479    0.0000 N   0  0  0  0  0  0  0  0  0  0  0  0
    3.3523    1.9354    0.0000 C   0  0  0  0  0  0  0  0  0  0  0  0
    3.3523    1.1104    0.0000 N   0  0  0  0  0  0  0  0  0  0  0  0
    2.6378    0.6979    0.0000 C   0  0  0  0  0  0  0  0  0  0  0  0
    1.9233    1.1104    0.0000 C   0  0  0  0  0  0  0  0  0  0  0  0
    1.1387    0.8555    0.0000 C   0  0  0  0  0  0  0  0  0  0  0  0
    0.6538    1.5229    0.0000 C   0  0  0  0  0  0  0  0  0  0  0  0
   -0.1712    1.5229    0.0000 C   0  0  0  0  0  0  0  0  0  0  0  0
   -0.9962    1.5229    0.0000 N   0  0  0  0  0  0  0  0  0  0  0  0
    1.1387    2.1904    0.0000 N   0  0  0  0  0  0  0  0  0  0  0  0
    0.8838    2.9750    0.0000 C   0  0  0  0  0  0  0  0  0  0  0  0
    0.0992    3.2299    0.0000 C   0  0  0  0  0  0  0  0  0  0  0  0
    0.0992    4.0549    0.0000 C   0  0  0  0  0  0  0  0  0  0  0  0
    0.8838    4.3099    0.0000 C   0  0  0  0  0  0  0  0  0  0  0  0
    1.3687    3.6424    0.0000 C   0  0  0  0  0  0  0  0  0  0  0  0
    1.9233    1.9354    0.0000 C   0  0  0  0  0  0  0  0  0  0  0  0
    2.6378    2.3479    0.0000 N   0  0  0  0  0  0  0  0  0  0  0  0
    5.4957    2.3479    0.0000 N   0  0  0  0  0  0  0  0  0  0  0  0
    6.2102    1.9354    0.0000 C   0  0  0  0  0  0  0  0  0  0  0  0
  1  2  1  0
  2  3  1  0
  2  4  1  0
  4  5  1  0
  5  6  1  0
  6  7  1  0
  7  8  1  0
  8  9  1  0
  4  9  1  0
  7 10  1  0
 10 11  2  0
 11 12  1  0
 12 13  2  0
 13 14  1  0
 14 15  1  0
 15 16  2  0
 16 17  1  0
 17 18  2  0
 18 19  1  0
 19 20  2  0
 20 21  1  0
 21 22  3  0
 20 23  1  0
 23 24  1  0
 24 25  1  0
 25 26  1  0
 26 27  1  0
 27 28  1  0
 24 28  1  0
 23 29  1  0
 18 29  1  0
 29 30  2  0
 15 30  1  0
 13 31  1  0
 31 32  2  0
 10 32  1  0
M  END
>  <pIC50>  (276) 
5.08

>  <chembl_id>  (276) 
CHEMBL3658034

>  <canonical_smiles>  (276) 
CN(C)C1CCN(CC1)c2ccc(Nc3ncc4cc(C#N)n(C5CCCC5)c4n3)nc2

$$$$
CHEMBL365847
     RDKit          2D

 33 37  0  0  0  0  0  0  0  0999 V2000
   -0.7145   -0.4125    0.0000 C   0  0  0  0  0  0  0  0  0  0  0  0
    0.0000    0.0000    0.0000 C   0  0  0  0  0  0  0  0  0  0  0  0
    0.0000    0.8250    0.0000 O   0  0  0  0  0  0  0  0  0  0  0  0
    0.7145   -0.4125    0.0000 C   0  0  0  0  0  0  0  0  0  0  0  0
    1.4289    0.0000    0.0000 C   0  0  0  0  0  0  0  0  0  0  0  0
    1.4289    0.8250    0.0000 C   0  0  0  0  0  0  0  0  0  0  0  0
    2.1434   -0.4125    0.0000 C   0  0  0  0  0  0  0  0  0  0  0  0
    2.8579    0.0000    0.0000 C   0  0  0  0  0  0  0  0  0  0  0  0
    3.5724   -0.4125    0.0000 N   0  0  0  0  0  0  0  0  0  0  0  0
    3.5724   -1.2375    0.0000 C   0  0  0  0  0  0  0  0  0  0  0  0
    4.2868   -1.6500    0.0000 N   0  0  0  0  0  0  0  0  0  0  0  0
    4.2868   -2.4750    0.0000 C   0  0  0  0  0  0  0  0  0  0  0  0
    5.0013   -2.8875    0.0000 C   0  0  0  0  0  0  0  0  0  0  0  0
    5.0013   -3.7125    0.0000 C   0  0  0  0  0  0  0  0  0  0  0  0
    4.2868   -4.1250    0.0000 C   0  0  0  0  0  0  0  0  0  0  0  0
    3.5724   -3.7125    0.0000 C   0  0  0  0  0  0  0  0  0  0  0  0
    3.5724   -2.8875    0.0000 C   0  0  0  0  0  0  0  0  0  0  0  0
    4.2868   -4.9500    0.0000 N   0  0  0  0  0  0  0  0  0  0  0  0
    5.0013   -5.3625    0.0000 C   0  0  0  0  0  0  0  0  0  0  0  0
    5.0013   -6.1875    0.0000 C   0  0  0  0  0  0  0  0  0  0  0  0
    4.2868   -6.6000    0.0000 N   0  0  0  0  0  0  0  0  0  0  0  0
    3.5724   -6.1875    0.0000 C   0  0  0  0  0  0  0  0  0  0  0  0
    3.5724   -5.3625    0.0000 C   0  0  0  0  0  0  0  0  0  0  0  0
    2.8579   -1.6500    0.0000 N   0  0  0  0  0  0  0  0  0  0  0  0
    2.1434   -1.2375    0.0000 C   0  0  0  0  0  0  0  0  0  0  0  0
    1.4289   -1.6500    0.0000 N   0  0  0  0  0  0  0  0  0  0  0  0
    1.4289   -2.4750    0.0000 C   0  0  0  0  0  0  0  0  0  0  0  0
    2.0964   -2.9599    0.0000 C   0  0  0  0  0  0  0  0  0  0  0  0
    1.8414   -3.7445    0.0000 C   0  0  0  0  0  0  0  0  0  0  0  0
    1.0164   -3.7445    0.0000 C   0  0  0  0  0  0  0  0  0  0  0  0
    0.7615   -2.9599    0.0000 C   0  0  0  0  0  0  0  0  0  0  0  0
    0.7145   -1.2375    0.0000 C   0  0  0  0  0  0  0  0  0  0  0  0
    0.0000   -1.6500    0.0000 O   0  0  0  0  0  0  0  0  0  0  0  0
  1  2  1  0
  2  3  2  0
  2  4  1  0
  4  5  2  0
  5  6  1  0
  5  7  1  0
  7  8  2  0
  8  9  1  0
  9 10  2  0
 10 11  1  0
 11 12  1  0
 12 13  2  0
 13 14  1  0
 14 15  2  0
 15 16  1  0
 16 17  2  0
 12 17  1  0
 15 18  1  0
 18 19  1  0
 19 20  1  0
 20 21  1  0
 21 22  1  0
 22 23  1  0
 18 23  1  0
 10 24  1  0
 24 25  2  0
  7 25  1  0
 25 26  1  0
 26 27  1  0
 27 28  1  0
 28 29  1  0
 29 30  1  0
 30 31  1  0
 27 31  1  0
 26 32  1  0
  4 32  1  0
 32 33  2  0
M  END
>  <pIC50>  (277) 
6.64

>  <chembl_id>  (277) 
CHEMBL365847

>  <canonical_smiles>  (277) 
CC(=O)C1=C(C)c2cnc(Nc3ccc(cc3)N4CCNCC4)nc2N(C5CCCC5)C1=O

$$$$
CHEMBL367150
     RDKit          2D

 31 34  0  0  0  0  0  0  0  0999 V2000
   -1.0079    3.7125    0.0000 C   0  0  0  0  0  0  0  0  0  0  0  0
   -0.2934    4.1250    0.0000 N   0  0  0  0  0  0  0  0  0  0  0  0
   -0.2934    4.9500    0.0000 C   0  0  0  0  0  0  0  0  0  0  0  0
    0.4210    3.7125    0.0000 S   0  0  0  0  0  0  0  0  0  0  0  0
    0.0085    2.9980    0.0000 O   0  0  0  0  0  0  0  0  0  0  0  0
    0.8335    4.4270    0.0000 O   0  0  0  0  0  0  0  0  0  0  0  0
    1.1355    3.3000    0.0000 C   0  0  0  0  0  0  0  0  0  0  0  0
    1.8500    3.7125    0.0000 C   0  0  0  0  0  0  0  0  0  0  0  0
    2.5645    3.3000    0.0000 C   0  0  0  0  0  0  0  0  0  0  0  0
    2.5645    2.4750    0.0000 C   0  0  0  0  0  0  0  0  0  0  0  0
    3.2789    2.0625    0.0000 N   0  0  0  0  0  0  0  0  0  0  0  0
    3.2789    1.2375    0.0000 C   0  0  0  0  0  0  0  0  0  0  0  0
    3.9934    0.8250    0.0000 C   0  0  0  0  0  0  0  0  0  0  0  0
    3.9934    0.0000    0.0000 C   0  0  0  0  0  0  0  0  0  0  0  0
    4.7079   -0.4125    0.0000 N   0  0  0  0  0  0  0  0  0  0  0  0
    4.7079   -1.2375    0.0000 C   0  0  0  0  0  0  0  0  0  0  0  0
    5.4223   -1.6500    0.0000 C   0  0  0  0  0  0  0  0  0  0  0  0
    5.4223   -2.4750    0.0000 C   0  0  0  0  0  0  0  0  0  0  0  0
    4.7079   -2.8875    0.0000 C   0  0  0  0  0  0  0  0  0  0  0  0
    4.7079   -3.7125    0.0000 N   0  0  0  0  0  0  0  0  0  0  0  0
    3.9934   -2.4750    0.0000 C   0  0  0  0  0  0  0  0  0  0  0  0
    3.9934   -1.6500    0.0000 C   0  0  0  0  0  0  0  0  0  0  0  0
    3.2789   -0.4125    0.0000 N   0  0  0  0  0  0  0  0  0  0  0  0
    2.5645    0.0000    0.0000 C   0  0  0  0  0  0  0  0  0  0  0  0
    1.7798   -0.2549    0.0000 C   0  0  0  0  0  0  0  0  0  0  0  0
    1.5249   -1.0396    0.0000 Cl  0  0  0  0  0  0  0  0  0  0  0  0
    1.2949    0.4125    0.0000 C   0  0  0  0  0  0  0  0  0  0  0  0
    1.7798    1.0799    0.0000 N   0  0  0  0  0  0  0  0  0  0  0  0
    2.5645    0.8250    0.0000 N   0  0  0  0  0  0  0  0  0  0  0  0
    1.8500    2.0625    0.0000 C   0  0  0  0  0  0  0  0  0  0  0  0
    1.1355    2.4750    0.0000 C   0  0  0  0  0  0  0  0  0  0  0  0
  1  2  1  0
  2  3  1  0
  2  4  1  0
  4  5  2  0
  4  6  2  0
  4  7  1  0
  7  8  2  0
  8  9  1  0
  9 10  2  0
 10 11  1  0
 11 12  1  0
 12 13  2  0
 13 14  1  0
 14 15  1  0
 16 15  1  6
 16 17  1  0
 17 18  1  0
 19 18  1  0
 19 20  1  1
 19 21  1  0
 21 22  1  0
 16 22  1  0
 14 23  2  0
 23 24  1  0
 24 25  2  0
 25 26  1  0
 25 27  1  0
 27 28  2  0
 28 29  1  0
 12 29  1  0
 24 29  1  0
 10 30  1  0
 30 31  2  0
  7 31  1  0
M  END
>  <pIC50>  (278) 
8.10

>  <chembl_id>  (278) 
CHEMBL367150

>  <canonical_smiles>  (278) 
CN(C)S(=O)(=O)c1ccc(Nc2cc(N[C@@H]3CC[C@@H](N)CC3)nc4c(Cl)cnn24)cc1

$$$$
CHEMBL3673434
     RDKit          2D

 28 30  0  0  1  0  0  0  0  0999 V2000
    1.4289   -2.4750    0.0000 C   0  0  0  0  0  0  0  0  0  0  0  0
    2.1434   -2.8875    0.0000 O   0  0  0  0  0  0  0  0  0  0  0  0
    2.1434   -3.7125    0.0000 C   0  0  0  0  0  0  0  0  0  0  0  0
    2.8579   -4.1250    0.0000 C   0  0  0  0  0  0  0  0  0  0  0  0
    2.8579   -4.9500    0.0000 C   0  0  0  0  0  0  0  0  0  0  0  0
    3.5724   -5.3625    0.0000 F   0  0  0  0  0  0  0  0  0  0  0  0
    2.1434   -5.3625    0.0000 C   0  0  0  0  0  0  0  0  0  0  0  0
    1.4289   -4.9500    0.0000 C   0  0  0  0  0  0  0  0  0  0  0  0
    1.4289   -4.1250    0.0000 C   0  0  0  0  0  0  0  0  0  0  0  0
    0.7145   -3.7125    0.0000 C   0  0  0  0  0  0  0  0  0  0  0  0
    0.0000   -4.1250    0.0000 C   0  0  0  0  0  0  0  0  0  0  0  0
   -0.7145   -3.7125    0.0000 C   0  0  0  0  0  0  0  0  0  0  0  0
   -0.7145   -2.8875    0.0000 N   0  0  0  0  0  0  0  0  0  0  0  0
    0.0000   -2.4750    0.0000 C   0  0  0  0  0  0  0  0  0  0  0  0
    0.0000   -1.6500    0.0000 N   0  0  0  0  0  0  0  0  0  0  0  0
    0.7145   -1.2375    0.0000 C   0  0  0  0  0  0  0  0  0  0  0  0
    1.4289   -1.6500    0.0000 O   0  0  0  0  0  0  0  0  0  0  0  0
    0.7145   -0.4125    0.0000 C   0  0  0  0  0  0  0  0  0  0  0  0
    0.0000    0.0000    0.0000 C   0  0  0  0  0  0  0  0  0  0  0  0
    0.0000    0.8250    0.0000 C   0  0  0  0  0  0  0  0  0  0  0  0
    0.7145    1.2375    0.0000 C   0  0  0  0  0  0  0  0  0  0  0  0
    1.4289    0.8250    0.0000 C   0  0  0  0  0  0  0  0  0  0  0  0
    1.4289    0.0000    0.0000 C   0  0  0  0  0  0  0  0  0  0  0  0
    2.1434    1.2375    0.0000 N   0  0  0  0  0  0  0  0  0  0  0  0
    2.8579    0.8250    0.0000 C   0  0  0  0  0  0  0  0  0  0  0  0
    3.5724    1.2375    0.0000 O   0  0  0  0  0  0  0  0  0  0  0  0
    2.8579    0.0000    0.0000 C   0  0  0  0  0  0  0  0  0  0  0  0
    0.7145   -2.8875    0.0000 C   0  0  0  0  0  0  0  0  0  0  0  0
  1  2  1  0
  2  3  1  0
  3  4  2  0
  4  5  1  0
  5  6  1  0
  5  7  2  0
  7  8  1  0
  8  9  2  0
  3  9  1  0
  9 10  1  0
 10 11  2  0
 11 12  1  0
 12 13  2  0
 13 14  1  0
 14 15  1  0
 15 16  1  0
 16 17  2  0
 18 16  1  1
 18 19  1  0
 19 20  1  0
 20 21  1  0
 22 21  1  0
 22 23  1  0
 18 23  1  0
 22 24  1  1
 24 25  1  0
 25 26  2  0
 25 27  1  0
 14 28  2  0
 10 28  1  0
M  END
>  <pIC50>  (279) 
6.77

>  <chembl_id>  (279) 
CHEMBL3673434

>  <canonical_smiles>  (279) 
COc1cc(F)ccc1c2ccnc(NC(=O)[C@H]3CCC[C@H](C3)NC(=O)C)c2

$$$$
CHEMBL3673435
     RDKit          2D

 27 29  0  0  0  0  0  0  0  0999 V2000
    3.4656    4.3527    0.0000 C   0  0  0  0  0  0  0  0  0  0  0  0
    2.7512    4.7652    0.0000 O   0  0  0  0  0  0  0  0  0  0  0  0
    2.7512    5.5902    0.0000 C   0  0  0  0  0  0  0  0  0  0  0  0
    2.0367    6.0027    0.0000 C   0  0  0  0  0  0  0  0  0  0  0  0
    2.0367    6.8277    0.0000 C   0  0  0  0  0  0  0  0  0  0  0  0
    1.3222    7.2402    0.0000 F   0  0  0  0  0  0  0  0  0  0  0  0
    2.7512    7.2402    0.0000 C   0  0  0  0  0  0  0  0  0  0  0  0
    3.4656    6.8277    0.0000 C   0  0  0  0  0  0  0  0  0  0  0  0
    3.4656    6.0027    0.0000 C   0  0  0  0  0  0  0  0  0  0  0  0
    4.1801    5.5902    0.0000 C   0  0  0  0  0  0  0  0  0  0  0  0
    4.8946    6.0027    0.0000 C   0  0  0  0  0  0  0  0  0  0  0  0
    5.6091    5.5902    0.0000 C   0  0  0  0  0  0  0  0  0  0  0  0
    5.6091    4.7652    0.0000 N   0  0  0  0  0  0  0  0  0  0  0  0
    4.8946    4.3527    0.0000 C   0  0  0  0  0  0  0  0  0  0  0  0
    4.8946    3.5277    0.0000 N   0  0  0  0  0  0  0  0  0  0  0  0
    4.1801    3.1152    0.0000 C   0  0  0  0  0  0  0  0  0  0  0  0
    3.4656    3.5277    0.0000 O   0  0  0  0  0  0  0  0  0  0  0  0
    4.1801    2.2902    0.0000 C   0  0  0  0  0  0  0  0  0  0  0  0
    4.8476    1.8053    0.0000 C   0  0  0  0  0  0  0  0  0  0  0  0
    4.5926    1.0206    0.0000 C   0  0  0  0  0  0  0  0  0  0  0  0
    3.7676    1.0206    0.0000 C   0  0  0  0  0  0  0  0  0  0  0  0
    3.5127    1.8053    0.0000 C   0  0  0  0  0  0  0  0  0  0  0  0
    3.2827    0.3532    0.0000 N   0  0  0  0  0  0  0  0  0  0  0  0
    2.4622    0.4394    0.0000 C   0  0  0  0  0  0  0  0  0  0  0  0
    1.9773   -0.2280    0.0000 O   0  0  0  0  0  0  0  0  0  0  0  0
    2.1267    1.1931    0.0000 C   0  0  0  0  0  0  0  0  0  0  0  0
    4.1801    4.7652    0.0000 C   0  0  0  0  0  0  0  0  0  0  0  0
  1  2  1  0
  2  3  1  0
  3  4  2  0
  4  5  1  0
  5  6  1  0
  5  7  2  0
  7  8  1  0
  8  9  2  0
  3  9  1  0
  9 10  1  0
 10 11  2  0
 11 12  1  0
 12 13  2  0
 13 14  1  0
 14 15  1  0
 15 16  1  0
 16 17  2  0
 16 18  1  0
 18 19  1  0
 19 20  1  0
 20 21  1  0
 21 22  1  0
 18 22  1  0
 21 23  1  0
 23 24  1  0
 24 25  2  0
 24 26  1  0
 14 27  2  0
 10 27  1  0
M  END
>  <pIC50>  (280) 
6.04

>  <chembl_id>  (280) 
CHEMBL3673435

>  <canonical_smiles>  (280) 
COc1cc(F)ccc1c2ccnc(NC(=O)C3CCC(C3)NC(=O)C)c2

$$$$
CHEMBL3673984
     RDKit          2D

 25 28  0  0  0  0  0  0  0  0999 V2000
    2.7845   -3.9979    0.0000 C   0  0  0  0  0  0  0  0  0  0  0  0
    2.0701   -3.5854    0.0000 O   0  0  0  0  0  0  0  0  0  0  0  0
    1.3556   -3.9979    0.0000 C   0  0  0  0  0  0  0  0  0  0  0  0
    1.3556   -4.8229    0.0000 C   0  0  0  0  0  0  0  0  0  0  0  0
    0.6411   -5.2354    0.0000 C   0  0  0  0  0  0  0  0  0  0  0  0
   -0.0734   -4.8229    0.0000 C   0  0  0  0  0  0  0  0  0  0  0  0
   -0.0734   -3.9979    0.0000 C   0  0  0  0  0  0  0  0  0  0  0  0
    0.6411   -3.5854    0.0000 C   0  0  0  0  0  0  0  0  0  0  0  0
    0.6411   -2.7604    0.0000 C   0  0  0  0  0  0  0  0  0  0  0  0
    1.3556   -2.3479    0.0000 C   0  0  0  0  0  0  0  0  0  0  0  0
    1.3556   -1.5229    0.0000 C   0  0  0  0  0  0  0  0  0  0  0  0
    2.0701   -1.1104    0.0000 C   0  0  0  0  0  0  0  0  0  0  0  0
    2.7845   -1.5229    0.0000 C   0  0  0  0  0  0  0  0  0  0  0  0
    3.0667   -0.7477    0.0000 C   0  0  0  0  0  0  0  0  0  0  0  0
    3.5970   -1.6662    0.0000 C   0  0  0  0  0  0  0  0  0  0  0  0
    2.7845   -2.3479    0.0000 C   0  0  0  0  0  0  0  0  0  0  0  0
    2.0701   -2.7604    0.0000 C   0  0  0  0  0  0  0  0  0  0  0  0
    2.5550   -3.4279    0.0000 O   0  0  0  0  0  0  0  0  0  0  0  0
    0.6411   -1.1104    0.0000 N   0  0  0  0  0  0  0  0  0  0  0  0
   -0.0734   -1.5229    0.0000 C   0  0  0  0  0  0  0  0  0  0  0  0
   -0.8580   -1.2680    0.0000 N   0  0  0  0  0  0  0  0  0  0  0  0
   -1.3429   -1.9354    0.0000 N   0  0  0  0  0  0  0  0  0  0  0  0
   -0.8580   -2.6029    0.0000 C   0  0  0  0  0  0  0  0  0  0  0  0
   -1.1129   -3.3875    0.0000 C   0  0  0  0  0  0  0  0  0  0  0  0
   -0.0734   -2.3479    0.0000 C   0  0  0  0  0  0  0  0  0  0  0  0
  1  2  1  0
  2  3  1  0
  3  4  2  0
  4  5  1  0
  5  6  2  0
  6  7  1  0
  7  8  2  0
  3  8  1  0
  8  9  1  0
  9 10  1  0
 10 11  1  0
 11 12  1  0
 12 13  1  0
 13 14  1  0
 13 15  1  0
 13 16  1  0
 16 17  1  0
 10 17  1  0
 17 18  2  0
 11 19  2  0
 19 20  1  0
 20 21  2  0
 21 22  1  0
 22 23  1  0
 23 24  1  0
 23 25  2  0
  9 25  1  0
 20 25  1  0
M  END
>  <pIC50>  (281) 
5.82

>  <chembl_id>  (281) 
CHEMBL3673984

>  <canonical_smiles>  (281) 
COc1ccccc1C2C3=C(CC(C)(C)CC3=O)Nc4n[nH]c(C)c24

$$$$
CHEMBL3673985
     RDKit          2D

 28 31  0  0  0  0  0  0  0  0999 V2000
    2.7845   -3.9979    0.0000 C   0  0  0  0  0  0  0  0  0  0  0  0
    2.0701   -3.5854    0.0000 O   0  0  0  0  0  0  0  0  0  0  0  0
    1.3556   -3.9979    0.0000 C   0  0  0  0  0  0  0  0  0  0  0  0
    1.3556   -4.8229    0.0000 C   0  0  0  0  0  0  0  0  0  0  0  0
    0.6411   -5.2354    0.0000 C   0  0  0  0  0  0  0  0  0  0  0  0
   -0.0734   -4.8229    0.0000 C   0  0  0  0  0  0  0  0  0  0  0  0
   -0.0734   -3.9979    0.0000 C   0  0  0  0  0  0  0  0  0  0  0  0
    0.6411   -3.5854    0.0000 C   0  0  0  0  0  0  0  0  0  0  0  0
    0.6411   -2.7604    0.0000 C   0  0  0  0  0  0  0  0  0  0  0  0
    1.3556   -2.3479    0.0000 C   0  0  0  0  0  0  0  0  0  0  0  0
    1.3556   -1.5229    0.0000 C   0  0  0  0  0  0  0  0  0  0  0  0
    2.0701   -1.1104    0.0000 C   0  0  0  0  0  0  0  0  0  0  0  0
    2.7845   -1.5229    0.0000 C   0  0  0  0  0  0  0  0  0  0  0  0
    3.0667   -0.7477    0.0000 C   0  0  0  0  0  0  0  0  0  0  0  0
    3.5970   -1.6662    0.0000 C   0  0  0  0  0  0  0  0  0  0  0  0
    2.7845   -2.3479    0.0000 C   0  0  0  0  0  0  0  0  0  0  0  0
    2.0701   -2.7604    0.0000 C   0  0  0  0  0  0  0  0  0  0  0  0
    2.5550   -3.4279    0.0000 O   0  0  0  0  0  0  0  0  0  0  0  0
    0.6411   -1.1104    0.0000 N   0  0  0  0  0  0  0  0  0  0  0  0
   -0.0734   -1.5229    0.0000 C   0  0  0  0  0  0  0  0  0  0  0  0
   -0.8580   -1.2680    0.0000 N   0  0  0  0  0  0  0  0  0  0  0  0
   -1.3429   -1.9354    0.0000 N   0  0  0  0  0  0  0  0  0  0  0  0
   -0.8580   -2.6029    0.0000 C   0  0  0  0  0  0  0  0  0  0  0  0
   -0.0734   -2.3479    0.0000 C   0  0  0  0  0  0  0  0  0  0  0  0
   -1.1129   -3.3875    0.0000 C   0  0  0  0  0  0  0  0  0  0  0  0
   -1.3679   -4.1721    0.0000 F   0  0  0  0  0  0  0  0  0  0  0  0
   -0.3283   -3.6424    0.0000 F   0  0  0  0  0  0  0  0  0  0  0  0
   -1.8975   -3.1326    0.0000 F   0  0  0  0  0  0  0  0  0  0  0  0
  1  2  1  0
  2  3  1  0
  3  4  2  0
  4  5  1  0
  5  6  2  0
  6  7  1  0
  7  8  2  0
  3  8  1  0
  8  9  1  0
  9 10  1  0
 10 11  1  0
 11 12  1  0
 12 13  1  0
 13 14  1  0
 13 15  1  0
 13 16  1  0
 16 17  1  0
 10 17  1  0
 17 18  2  0
 11 19  2  0
 19 20  1  0
 20 21  1  0
 21 22  1  0
 22 23  2  0
 23 24  1  0
  9 24  1  0
 20 24  2  0
 23 25  1  0
 25 26  1  0
 25 27  1  0
 25 28  1  0
M  END
>  <pIC50>  (282) 
5.41

>  <chembl_id>  (282) 
CHEMBL3673985

>  <canonical_smiles>  (282) 
COc1ccccc1C2C3=C(CC(C)(C)CC3=O)Nc4n[nH]c(c24)C(F)(F)F

$$$$
CHEMBL378248
     RDKit          2D

 31 33  0  0  0  0  0  0  0  0999 V2000
    6.3235    3.6509    0.0000 N   0  0  0  0  0  0  0  0  0  0  0  0
    6.3235    2.8259    0.0000 C   0  0  0  0  0  0  0  0  0  0  0  0
    5.6091    2.4134    0.0000 C   0  0  0  0  0  0  0  0  0  0  0  0
    4.8946    2.8259    0.0000 O   0  0  0  0  0  0  0  0  0  0  0  0
    5.6091    1.5884    0.0000 N   0  0  0  0  0  0  0  0  0  0  0  0
    4.8946    1.1759    0.0000 S   0  0  0  0  0  0  0  0  0  0  0  0
    4.4821    1.8904    0.0000 O   0  0  0  0  0  0  0  0  0  0  0  0
    5.3071    0.4614    0.0000 O   0  0  0  0  0  0  0  0  0  0  0  0
    4.1801    0.7634    0.0000 C   0  0  0  0  0  0  0  0  0  0  0  0
    4.1801   -0.0616    0.0000 C   0  0  0  0  0  0  0  0  0  0  0  0
    3.4656   -0.4741    0.0000 C   0  0  0  0  0  0  0  0  0  0  0  0
    2.7512   -0.0616    0.0000 C   0  0  0  0  0  0  0  0  0  0  0  0
    2.0367   -0.4741    0.0000 N   0  0  0  0  0  0  0  0  0  0  0  0
    2.0367   -1.2991    0.0000 C   0  0  0  0  0  0  0  0  0  0  0  0
    2.7041   -1.7840    0.0000 N   0  0  0  0  0  0  0  0  0  0  0  0
    2.4492   -2.5687    0.0000 C   0  0  0  0  0  0  0  0  0  0  0  0
    2.9341   -3.2361    0.0000 N   0  0  0  0  0  0  0  0  0  0  0  0
    1.6242   -2.5687    0.0000 N   0  0  0  0  0  0  0  0  0  0  0  0
    1.3693   -1.7840    0.0000 N   0  0  0  0  0  0  0  0  0  0  0  0
    1.1393   -3.2361    0.0000 C   0  0  0  0  0  0  0  0  0  0  0  0
    1.4748   -3.9898    0.0000 O   0  0  0  0  0  0  0  0  0  0  0  0
    0.3188   -3.1499    0.0000 C   0  0  0  0  0  0  0  0  0  0  0  0
   -0.1661   -3.8173    0.0000 C   0  0  0  0  0  0  0  0  0  0  0  0
    0.1694   -4.5710    0.0000 F   0  0  0  0  0  0  0  0  0  0  0  0
   -0.9866   -3.7311    0.0000 C   0  0  0  0  0  0  0  0  0  0  0  0
   -1.3222   -2.9774    0.0000 C   0  0  0  0  0  0  0  0  0  0  0  0
   -0.8372   -2.3099    0.0000 C   0  0  0  0  0  0  0  0  0  0  0  0
   -0.0168   -2.3962    0.0000 C   0  0  0  0  0  0  0  0  0  0  0  0
    0.4682   -1.7287    0.0000 F   0  0  0  0  0  0  0  0  0  0  0  0
    2.7512    0.7634    0.0000 C   0  0  0  0  0  0  0  0  0  0  0  0
    3.4656    1.1759    0.0000 C   0  0  0  0  0  0  0  0  0  0  0  0
  1  2  1  0
  2  3  1  0
  3  4  2  0
  3  5  1  0
  5  6  1  0
  6  7  2  0
  6  8  2  0
  6  9  1  0
  9 10  2  0
 10 11  1  0
 11 12  2  0
 12 13  1  0
 13 14  1  0
 14 15  1  0
 15 16  2  0
 16 17  1  0
 16 18  1  0
 18 19  1  0
 14 19  2  0
 18 20  1  0
 20 21  2  0
 20 22  1  0
 22 23  2  0
 23 24  1  0
 23 25  1  0
 25 26  2  0
 26 27  1  0
 27 28  2  0
 22 28  1  0
 28 29  1  0
 12 30  1  0
 30 31  2  0
  9 31  1  0
M  END
>  <pIC50>  (283) 
6.92

>  <chembl_id>  (283) 
CHEMBL378248

>  <canonical_smiles>  (283) 
NCC(=O)NS(=O)(=O)c1ccc(Nc2nc(N)n(n2)C(=O)c3c(F)cccc3F)cc1

$$$$
CHEMBL378420
     RDKit          2D

 37 40  0  0  0  0  0  0  0  0999 V2000
   -0.6078   -0.4741    0.0000 N   0  0  0  0  0  0  0  0  0  0  0  0
   -0.6078   -1.2991    0.0000 C   0  0  0  0  0  0  0  0  0  0  0  0
    0.0597   -1.7840    0.0000 N   0  0  0  0  0  0  0  0  0  0  0  0
   -0.1953   -2.5687    0.0000 C   0  0  0  0  0  0  0  0  0  0  0  0
    0.2897   -3.2361    0.0000 N   0  0  0  0  0  0  0  0  0  0  0  0
    1.1101   -3.1499    0.0000 C   0  0  0  0  0  0  0  0  0  0  0  0
    1.4457   -2.3962    0.0000 C   0  0  0  0  0  0  0  0  0  0  0  0
    2.2662   -2.3099    0.0000 C   0  0  0  0  0  0  0  0  0  0  0  0
    2.7511   -2.9774    0.0000 C   0  0  0  0  0  0  0  0  0  0  0  0
    2.4155   -3.7311    0.0000 C   0  0  0  0  0  0  0  0  0  0  0  0
    1.5951   -3.8173    0.0000 C   0  0  0  0  0  0  0  0  0  0  0  0
    3.5716   -2.8911    0.0000 S   0  0  0  0  0  0  0  0  0  0  0  0
    3.4853   -2.0707    0.0000 O   0  0  0  0  0  0  0  0  0  0  0  0
    3.6578   -3.7116    0.0000 O   0  0  0  0  0  0  0  0  0  0  0  0
    4.3921   -2.8049    0.0000 N   0  0  0  0  0  0  0  0  0  0  0  0
    4.8770   -3.4723    0.0000 C   0  0  0  0  0  0  0  0  0  0  0  0
    4.5414   -4.2260    0.0000 O   0  0  0  0  0  0  0  0  0  0  0  0
    5.6975   -3.3861    0.0000 C   0  0  0  0  0  0  0  0  0  0  0  0
    6.1824   -4.0536    0.0000 C   0  0  0  0  0  0  0  0  0  0  0  0
    7.0029   -3.9673    0.0000 N   0  0  0  0  0  0  0  0  0  0  0  0
    7.3384   -3.2136    0.0000 C   0  0  0  0  0  0  0  0  0  0  0  0
    8.1589   -3.1274    0.0000 C   0  0  0  0  0  0  0  0  0  0  0  0
    8.6438   -3.7948    0.0000 O   0  0  0  0  0  0  0  0  0  0  0  0
    8.3083   -4.5485    0.0000 C   0  0  0  0  0  0  0  0  0  0  0  0
    7.4878   -4.6348    0.0000 C   0  0  0  0  0  0  0  0  0  0  0  0
   -1.0203   -2.5687    0.0000 N   0  0  0  0  0  0  0  0  0  0  0  0
   -1.2752   -1.7840    0.0000 N   0  0  0  0  0  0  0  0  0  0  0  0
   -2.0598   -1.5291    0.0000 C   0  0  0  0  0  0  0  0  0  0  0  0
   -2.2314   -0.7221    0.0000 O   0  0  0  0  0  0  0  0  0  0  0  0
   -2.6729   -2.0811    0.0000 C   0  0  0  0  0  0  0  0  0  0  0  0
   -2.5014   -2.8881    0.0000 C   0  0  0  0  0  0  0  0  0  0  0  0
   -1.7168   -3.1430    0.0000 F   0  0  0  0  0  0  0  0  0  0  0  0
   -3.1145   -3.4401    0.0000 C   0  0  0  0  0  0  0  0  0  0  0  0
   -3.8991   -3.1852    0.0000 C   0  0  0  0  0  0  0  0  0  0  0  0
   -4.0706   -2.3782    0.0000 C   0  0  0  0  0  0  0  0  0  0  0  0
   -3.4575   -1.8262    0.0000 C   0  0  0  0  0  0  0  0  0  0  0  0
   -3.6291   -1.0192    0.0000 F   0  0  0  0  0  0  0  0  0  0  0  0
  1  2  1  0
  2  3  2  0
  3  4  1  0
  4  5  1  0
  5  6  1  0
  6  7  2  0
  7  8  1  0
  8  9  2  0
  9 10  1  0
 10 11  2  0
  6 11  1  0
  9 12  1  0
 12 13  2  0
 12 14  2  0
 12 15  1  0
 15 16  1  0
 16 17  2  0
 16 18  1  0
 18 19  1  0
 19 20  1  0
 20 21  1  0
 21 22  1  0
 22 23  1  0
 23 24  1  0
 24 25  1  0
 20 25  1  0
  4 26  2  0
 26 27  1  0
  2 27  1  0
 27 28  1  0
 28 29  2  0
 28 30  1  0
 30 31  2  0
 31 32  1  0
 31 33  1  0
 33 34  2  0
 34 35  1  0
 35 36  2  0
 30 36  1  0
 36 37  1  0
M  END
>  <pIC50>  (284) 
6.93

>  <chembl_id>  (284) 
CHEMBL378420

>  <canonical_smiles>  (284) 
Nc1nc(Nc2ccc(cc2)S(=O)(=O)NC(=O)CCN3CCOCC3)nn1C(=O)c4c(F)cccc4F

$$$$
CHEMBL3787112
     RDKit          2D

 26 30  0  0  0  0  0  0  0  0999 V2000
    3.2789    2.0625    0.0000 N   0  0  0  0  0  0  0  0  0  0  0  0
    3.2789    1.2375    0.0000 C   0  0  0  0  0  0  0  0  0  0  0  0
    3.9934    0.8250    0.0000 N   0  0  0  0  0  0  0  0  0  0  0  0
    3.9934    0.0000    0.0000 C   0  0  0  0  0  0  0  0  0  0  0  0
    3.2789   -0.4125    0.0000 N   0  0  0  0  0  0  0  0  0  0  0  0
    2.5645    0.0000    0.0000 C   0  0  0  0  0  0  0  0  0  0  0  0
    2.5645    0.8250    0.0000 C   0  0  0  0  0  0  0  0  0  0  0  0
    1.7798    1.0799    0.0000 C   0  0  0  0  0  0  0  0  0  0  0  0
    1.2949    0.4125    0.0000 C   0  0  0  0  0  0  0  0  0  0  0  0
    1.7798   -0.2549    0.0000 N   0  0  0  0  0  0  0  0  0  0  0  0
    1.5249   -1.0396    0.0000 C   0  0  0  0  0  0  0  0  0  0  0  0
    1.8994   -1.7746    0.0000 C   0  0  0  0  0  0  0  0  0  0  0  0
    1.1644   -2.1492    0.0000 C   0  0  0  0  0  0  0  0  0  0  0  0
    0.9094   -2.9338    0.0000 C   0  0  0  0  0  0  0  0  0  0  0  0
    0.1024   -3.1053    0.0000 N   0  0  0  0  0  0  0  0  0  0  0  0
   -0.3469   -3.7972    0.0000 C   0  0  0  0  0  0  0  0  0  0  0  0
   -1.0388   -3.3479    0.0000 C   0  0  0  0  0  0  0  0  0  0  0  0
   -0.5895   -2.6560    0.0000 C   0  0  0  0  0  0  0  0  0  0  0  0
    0.7898   -1.4141    0.0000 C   0  0  0  0  0  0  0  0  0  0  0  0
    1.5249    1.8646    0.0000 C   0  0  0  0  0  0  0  0  0  0  0  0
    0.7179    2.0361    0.0000 C   0  0  0  0  0  0  0  0  0  0  0  0
    0.4630    2.8207    0.0000 C   0  0  0  0  0  0  0  0  0  0  0  0
    1.0150    3.4338    0.0000 C   0  0  0  0  0  0  0  0  0  0  0  0
    1.8220    3.2623    0.0000 C   0  0  0  0  0  0  0  0  0  0  0  0
    2.3740    3.8754    0.0000 O   0  0  0  0  0  0  0  0  0  0  0  0
    2.0769    2.4777    0.0000 C   0  0  0  0  0  0  0  0  0  0  0  0
  1  2  1  0
  2  3  2  0
  3  4  1  0
  4  5  2  0
  5  6  1  0
  6  7  2  0
  2  7  1  0
  7  8  1  0
  8  9  2  0
  9 10  1  0
  6 10  1  0
 11 10  1  6
 11 12  1  0
 13 12  1  0
 13 14  1  6
 14 15  1  0
 15 16  1  0
 16 17  1  0
 17 18  1  0
 15 18  1  0
 13 19  1  0
 11 19  1  0
  8 20  1  0
 20 21  2  0
 21 22  1  0
 22 23  2  0
 23 24  1  0
 24 25  1  0
 24 26  2  0
 20 26  1  0
M  END
>  <pIC50>  (285) 
6.39

>  <chembl_id>  (285) 
CHEMBL3787112

>  <canonical_smiles>  (285) 
Nc1ncnc2c1c(cn2[C@@H]3C[C@H](CN4CCC4)C3)c5cccc(O)c5

$$$$
CHEMBL379193
     RDKit          2D

 36 38  0  0  0  0  0  0  0  0999 V2000
    9.1815   -7.3346    0.0000 C   0  0  0  0  0  0  0  0  0  0  0  0
    9.8960   -6.9221    0.0000 C   0  0  0  0  0  0  0  0  0  0  0  0
   10.6104   -7.3346    0.0000 O   0  0  0  0  0  0  0  0  0  0  0  0
   11.3249   -6.9221    0.0000 C   0  0  0  0  0  0  0  0  0  0  0  0
   11.3249   -6.0971    0.0000 O   0  0  0  0  0  0  0  0  0  0  0  0
   12.0394   -7.3346    0.0000 C   0  0  0  0  0  0  0  0  0  0  0  0
   12.7538   -6.9221    0.0000 C   0  0  0  0  0  0  0  0  0  0  0  0
   13.4683   -7.3346    0.0000 C   0  0  0  0  0  0  0  0  0  0  0  0
   13.4683   -8.1596    0.0000 O   0  0  0  0  0  0  0  0  0  0  0  0
   14.1828   -6.9221    0.0000 N   0  0  0  0  0  0  0  0  0  0  0  0
   14.8973   -7.3346    0.0000 S   0  0  0  0  0  0  0  0  0  0  0  0
   14.4848   -8.0491    0.0000 O   0  0  0  0  0  0  0  0  0  0  0  0
   15.3098   -6.6201    0.0000 O   0  0  0  0  0  0  0  0  0  0  0  0
   15.6117   -7.7471    0.0000 C   0  0  0  0  0  0  0  0  0  0  0  0
   16.3262   -7.3346    0.0000 C   0  0  0  0  0  0  0  0  0  0  0  0
   17.0407   -7.7471    0.0000 C   0  0  0  0  0  0  0  0  0  0  0  0
   17.0407   -8.5721    0.0000 C   0  0  0  0  0  0  0  0  0  0  0  0
   17.7551   -8.9846    0.0000 N   0  0  0  0  0  0  0  0  0  0  0  0
   18.4696   -8.5721    0.0000 C   0  0  0  0  0  0  0  0  0  0  0  0
   18.5558   -7.7516    0.0000 N   0  0  0  0  0  0  0  0  0  0  0  0
   19.3628   -7.5801    0.0000 C   0  0  0  0  0  0  0  0  0  0  0  0
   19.6984   -6.8264    0.0000 N   0  0  0  0  0  0  0  0  0  0  0  0
   19.7753   -8.2946    0.0000 N   0  0  0  0  0  0  0  0  0  0  0  0
   19.2233   -8.9077    0.0000 N   0  0  0  0  0  0  0  0  0  0  0  0
   20.5958   -8.3808    0.0000 C   0  0  0  0  0  0  0  0  0  0  0  0
   21.0807   -7.7134    0.0000 O   0  0  0  0  0  0  0  0  0  0  0  0
   20.9314   -9.1345    0.0000 C   0  0  0  0  0  0  0  0  0  0  0  0
   21.7518   -9.2207    0.0000 C   0  0  0  0  0  0  0  0  0  0  0  0
   22.2368   -8.5533    0.0000 F   0  0  0  0  0  0  0  0  0  0  0  0
   22.0874   -9.9744    0.0000 C   0  0  0  0  0  0  0  0  0  0  0  0
   21.6025  -10.6418    0.0000 C   0  0  0  0  0  0  0  0  0  0  0  0
   20.7820  -10.5556    0.0000 C   0  0  0  0  0  0  0  0  0  0  0  0
   20.4464   -9.8019    0.0000 C   0  0  0  0  0  0  0  0  0  0  0  0
   19.6259   -9.7157    0.0000 F   0  0  0  0  0  0  0  0  0  0  0  0
   16.3262   -8.9846    0.0000 C   0  0  0  0  0  0  0  0  0  0  0  0
   15.6117   -8.5721    0.0000 C   0  0  0  0  0  0  0  0  0  0  0  0
  1  2  1  0
  2  3  1  0
  3  4  1  0
  4  5  2  0
  4  6  1  0
  6  7  1  0
  7  8  1  0
  8  9  2  0
  8 10  1  0
 10 11  1  0
 11 12  2  0
 11 13  2  0
 11 14  1  0
 14 15  2  0
 15 16  1  0
 16 17  2  0
 17 18  1  0
 18 19  1  0
 19 20  1  0
 20 21  2  0
 21 22  1  0
 21 23  1  0
 23 24  1  0
 19 24  2  0
 23 25  1  0
 25 26  2  0
 25 27  1  0
 27 28  2  0
 28 29  1  0
 28 30  1  0
 30 31  2  0
 31 32  1  0
 32 33  2  0
 27 33  1  0
 33 34  1  0
 17 35  1  0
 35 36  2  0
 14 36  1  0
M  END
>  <pIC50>  (286) 
7.21

>  <chembl_id>  (286) 
CHEMBL379193

>  <canonical_smiles>  (286) 
CCOC(=O)CCC(=O)NS(=O)(=O)c1ccc(Nc2nc(N)n(n2)C(=O)c3c(F)cccc3F)cc1

$$$$
CHEMBL379495
     RDKit          2D

 29 31  0  0  0  0  0  0  0  0999 V2000
    1.4289    9.6536    0.0000 C   0  0  0  0  0  0  0  0  0  0  0  0
    2.1434    9.2411    0.0000 O   0  0  0  0  0  0  0  0  0  0  0  0
    2.1434    8.4161    0.0000 C   0  0  0  0  0  0  0  0  0  0  0  0
    2.8579    8.0036    0.0000 C   0  0  0  0  0  0  0  0  0  0  0  0
    2.8579    7.1786    0.0000 C   0  0  0  0  0  0  0  0  0  0  0  0
    2.1434    6.7661    0.0000 C   0  0  0  0  0  0  0  0  0  0  0  0
    1.4289    7.1786    0.0000 C   0  0  0  0  0  0  0  0  0  0  0  0
    1.4289    8.0036    0.0000 C   0  0  0  0  0  0  0  0  0  0  0  0
    0.7145    8.4161    0.0000 O   0  0  0  0  0  0  0  0  0  0  0  0
    0.7145    9.2411    0.0000 C   0  0  0  0  0  0  0  0  0  0  0  0
    2.1434    5.9411    0.0000 C   0  0  0  0  0  0  0  0  0  0  0  0
    2.8579    5.5286    0.0000 O   0  0  0  0  0  0  0  0  0  0  0  0
    1.4289    5.5286    0.0000 N   0  0  0  0  0  0  0  0  0  0  0  0
    1.4289    4.7036    0.0000 C   0  0  0  0  0  0  0  0  0  0  0  0
    2.0964    4.2187    0.0000 N   0  0  0  0  0  0  0  0  0  0  0  0
    1.8414    3.4340    0.0000 C   0  0  0  0  0  0  0  0  0  0  0  0
    1.0164    3.4340    0.0000 C   0  0  0  0  0  0  0  0  0  0  0  0
    0.5315    2.7666    0.0000 S   0  0  0  0  0  0  0  0  0  0  0  0
    0.8671    2.0129    0.0000 C   0  0  0  0  0  0  0  0  0  0  0  0
    0.3822    1.3455    0.0000 C   0  0  0  0  0  0  0  0  0  0  0  0
    0.6371    0.5609    0.0000 O   0  0  0  0  0  0  0  0  0  0  0  0
   -0.0303    0.0759    0.0000 C   0  0  0  0  0  0  0  0  0  0  0  0
   -0.6978    0.5609    0.0000 C   0  0  0  0  0  0  0  0  0  0  0  0
   -0.4428    1.3455    0.0000 N   0  0  0  0  0  0  0  0  0  0  0  0
   -0.0303   -0.7491    0.0000 C   0  0  0  0  0  0  0  0  0  0  0  0
   -0.0303   -1.5741    0.0000 C   0  0  0  0  0  0  0  0  0  0  0  0
   -0.8553   -0.7491    0.0000 C   0  0  0  0  0  0  0  0  0  0  0  0
    0.7947   -0.7491    0.0000 C   0  0  0  0  0  0  0  0  0  0  0  0
    0.7615    4.2187    0.0000 S   0  0  0  0  0  0  0  0  0  0  0  0
  1  2  1  0
  2  3  1  0
  3  4  2  0
  4  5  1  0
  5  6  2  0
  6  7  1  0
  7  8  2  0
  3  8  1  0
  8  9  1  0
  9 10  1  0
  6 11  1  0
 11 12  2  0
 11 13  1  0
 13 14  1  0
 14 15  2  0
 15 16  1  0
 16 17  2  0
 17 18  1  0
 18 19  1  0
 19 20  1  0
 20 21  1  0
 21 22  1  0
 22 23  2  0
 23 24  1  0
 20 24  2  0
 22 25  1  0
 25 26  1  0
 25 27  1  0
 25 28  1  0
 17 29  1  0
 14 29  1  0
M  END
>  <pIC50>  (287) 
7.30

>  <chembl_id>  (287) 
CHEMBL379495

>  <canonical_smiles>  (287) 
COc1ccc(cc1OC)C(=O)Nc2ncc(SCc3oc(cn3)C(C)(C)C)s2

$$$$
CHEMBL3797559
     RDKit          2D

 16 18  0  0  0  0  0  0  0  0999 V2000
   -0.1712   -2.1269    0.0000 N   0  0  0  0  0  0  0  0  0  0  0  0
   -0.5837   -1.4124    0.0000 C   0  0  0  0  0  0  0  0  0  0  0  0
   -1.4087   -1.4124    0.0000 N   0  0  0  0  0  0  0  0  0  0  0  0
   -1.8212   -0.6979    0.0000 C   0  0  0  0  0  0  0  0  0  0  0  0
   -1.4087    0.0165    0.0000 C   0  0  0  0  0  0  0  0  0  0  0  0
   -0.5837    0.0165    0.0000 C   0  0  0  0  0  0  0  0  0  0  0  0
   -0.1712   -0.6979    0.0000 C   0  0  0  0  0  0  0  0  0  0  0  0
    0.6538   -0.6979    0.0000 C   0  0  0  0  0  0  0  0  0  0  0  0
    1.1387   -0.0305    0.0000 N   0  0  0  0  0  0  0  0  0  0  0  0
    1.9233   -0.2854    0.0000 C   0  0  0  0  0  0  0  0  0  0  0  0
    2.6378    0.1271    0.0000 C   0  0  0  0  0  0  0  0  0  0  0  0
    3.3523   -0.2854    0.0000 C   0  0  0  0  0  0  0  0  0  0  0  0
    3.3523   -1.1104    0.0000 C   0  0  0  0  0  0  0  0  0  0  0  0
    2.6378   -1.5229    0.0000 C   0  0  0  0  0  0  0  0  0  0  0  0
    1.9233   -1.1104    0.0000 C   0  0  0  0  0  0  0  0  0  0  0  0
    1.1387   -1.3654    0.0000 N   0  0  0  0  0  0  0  0  0  0  0  0
  1  2  1  0
  2  3  2  0
  3  4  1  0
  4  5  2  0
  5  6  1  0
  6  7  2  0
  2  7  1  0
  7  8  1  0
  8  9  2  0
  9 10  1  0
 10 11  2  0
 11 12  1  0
 12 13  2  0
 13 14  1  0
 14 15  2  0
 10 15  1  0
 15 16  1  0
  8 16  1  0
M  END
>  <pIC50>  (288) 
4.60

>  <chembl_id>  (288) 
CHEMBL3797559

>  <canonical_smiles>  (288) 
Nc1ncccc1c2nc3ccccc3[nH]2

$$$$
CHEMBL3797574
     RDKit          2D

 27 30  0  0  0  0  0  0  0  0999 V2000
   -1.4087   -5.6992    0.0000 C   0  0  0  0  0  0  0  0  0  0  0  0
   -1.8212   -4.9848    0.0000 N   0  0  0  0  0  0  0  0  0  0  0  0
   -2.6462   -4.9848    0.0000 C   0  0  0  0  0  0  0  0  0  0  0  0
   -1.4087   -4.2703    0.0000 C   0  0  0  0  0  0  0  0  0  0  0  0
   -0.5837   -4.2703    0.0000 O   0  0  0  0  0  0  0  0  0  0  0  0
   -1.8212   -3.5558    0.0000 C   0  0  0  0  0  0  0  0  0  0  0  0
   -2.6462   -3.5558    0.0000 C   0  0  0  0  0  0  0  0  0  0  0  0
   -3.0587   -2.8414    0.0000 C   0  0  0  0  0  0  0  0  0  0  0  0
   -2.6462   -2.1269    0.0000 C   0  0  0  0  0  0  0  0  0  0  0  0
   -1.8212   -2.1269    0.0000 C   0  0  0  0  0  0  0  0  0  0  0  0
   -1.4087   -2.8414    0.0000 C   0  0  0  0  0  0  0  0  0  0  0  0
   -1.4087   -1.4124    0.0000 C   0  0  0  0  0  0  0  0  0  0  0  0
   -1.8212   -0.6979    0.0000 C   0  0  0  0  0  0  0  0  0  0  0  0
   -1.4087    0.0165    0.0000 N   0  0  0  0  0  0  0  0  0  0  0  0
   -0.5837    0.0165    0.0000 C   0  0  0  0  0  0  0  0  0  0  0  0
   -0.1712    0.7310    0.0000 N   0  0  0  0  0  0  0  0  0  0  0  0
   -0.1712   -0.6979    0.0000 C   0  0  0  0  0  0  0  0  0  0  0  0
   -0.5837   -1.4124    0.0000 C   0  0  0  0  0  0  0  0  0  0  0  0
    0.6538   -0.6979    0.0000 C   0  0  0  0  0  0  0  0  0  0  0  0
    1.1387   -0.0305    0.0000 N   0  0  0  0  0  0  0  0  0  0  0  0
    1.9233   -0.2854    0.0000 C   0  0  0  0  0  0  0  0  0  0  0  0
    2.6378    0.1271    0.0000 C   0  0  0  0  0  0  0  0  0  0  0  0
    3.3523   -0.2854    0.0000 C   0  0  0  0  0  0  0  0  0  0  0  0
    3.3523   -1.1104    0.0000 C   0  0  0  0  0  0  0  0  0  0  0  0
    2.6378   -1.5229    0.0000 C   0  0  0  0  0  0  0  0  0  0  0  0
    1.9233   -1.1104    0.0000 C   0  0  0  0  0  0  0  0  0  0  0  0
    1.1387   -1.3654    0.0000 N   0  0  0  0  0  0  0  0  0  0  0  0
  1  2  1  0
  2  3  1  0
  2  4  1  0
  4  5  2  0
  4  6  1  0
  6  7  2  0
  7  8  1  0
  8  9  2  0
  9 10  1  0
 10 11  2  0
  6 11  1  0
 10 12  1  0
 12 13  2  0
 13 14  1  0
 14 15  2  0
 15 16  1  0
 15 17  1  0
 17 18  2  0
 12 18  1  0
 17 19  1  0
 19 20  2  0
 20 21  1  0
 21 22  2  0
 22 23  1  0
 23 24  2  0
 24 25  1  0
 25 26  2  0
 21 26  1  0
 26 27  1  0
 19 27  1  0
M  END
>  <pIC50>  (289) 
5.24

>  <chembl_id>  (289) 
CHEMBL3797574

>  <canonical_smiles>  (289) 
CN(C)C(=O)c1cccc(c1)c2cnc(N)c(c2)c3nc4ccccc4[nH]3

$$$$
CHEMBL3797828
     RDKit          2D

 33 37  0  0  0  0  0  0  0  0999 V2000
   -1.4087   -5.6992    0.0000 C   0  0  0  0  0  0  0  0  0  0  0  0
   -1.8212   -4.9848    0.0000 N   0  0  0  0  0  0  0  0  0  0  0  0
   -2.6462   -4.9848    0.0000 C   0  0  0  0  0  0  0  0  0  0  0  0
   -1.4087   -4.2703    0.0000 C   0  0  0  0  0  0  0  0  0  0  0  0
   -0.5837   -4.2703    0.0000 O   0  0  0  0  0  0  0  0  0  0  0  0
   -1.8212   -3.5558    0.0000 C   0  0  0  0  0  0  0  0  0  0  0  0
   -2.6462   -3.5558    0.0000 C   0  0  0  0  0  0  0  0  0  0  0  0
   -3.0587   -2.8414    0.0000 C   0  0  0  0  0  0  0  0  0  0  0  0
   -2.6462   -2.1269    0.0000 C   0  0  0  0  0  0  0  0  0  0  0  0
   -1.8212   -2.1269    0.0000 C   0  0  0  0  0  0  0  0  0  0  0  0
   -1.4087   -2.8414    0.0000 C   0  0  0  0  0  0  0  0  0  0  0  0
   -1.4087   -1.4124    0.0000 C   0  0  0  0  0  0  0  0  0  0  0  0
   -1.8212   -0.6979    0.0000 C   0  0  0  0  0  0  0  0  0  0  0  0
   -1.4087    0.0165    0.0000 N   0  0  0  0  0  0  0  0  0  0  0  0
   -0.5837    0.0165    0.0000 C   0  0  0  0  0  0  0  0  0  0  0  0
   -0.1712    0.7310    0.0000 N   0  0  0  0  0  0  0  0  0  0  0  0
   -0.1712   -0.6979    0.0000 C   0  0  0  0  0  0  0  0  0  0  0  0
   -0.5837   -1.4124    0.0000 C   0  0  0  0  0  0  0  0  0  0  0  0
    0.6538   -0.6979    0.0000 C   0  0  0  0  0  0  0  0  0  0  0  0
    1.1387   -0.0305    0.0000 N   0  0  0  0  0  0  0  0  0  0  0  0
    1.9233   -0.2854    0.0000 C   0  0  0  0  0  0  0  0  0  0  0  0
    2.6378    0.1271    0.0000 C   0  0  0  0  0  0  0  0  0  0  0  0
    3.3523   -0.2854    0.0000 C   0  0  0  0  0  0  0  0  0  0  0  0
    3.3523   -1.1104    0.0000 C   0  0  0  0  0  0  0  0  0  0  0  0
    2.6378   -1.5229    0.0000 C   0  0  0  0  0  0  0  0  0  0  0  0
    2.6378   -2.3479    0.0000 N   0  0  0  0  0  0  0  0  0  0  0  0
    3.3523   -2.7604    0.0000 C   0  0  0  0  0  0  0  0  0  0  0  0
    3.3523   -3.5854    0.0000 C   0  0  0  0  0  0  0  0  0  0  0  0
    2.6378   -3.9979    0.0000 N   0  0  0  0  0  0  0  0  0  0  0  0
    1.9233   -3.5854    0.0000 C   0  0  0  0  0  0  0  0  0  0  0  0
    1.9233   -2.7604    0.0000 C   0  0  0  0  0  0  0  0  0  0  0  0
    1.9233   -1.1104    0.0000 C   0  0  0  0  0  0  0  0  0  0  0  0
    1.1387   -1.3654    0.0000 N   0  0  0  0  0  0  0  0  0  0  0  0
  1  2  1  0
  2  3  1  0
  2  4  1  0
  4  5  2  0
  4  6  1  0
  6  7  2  0
  7  8  1  0
  8  9  2  0
  9 10  1  0
 10 11  2  0
  6 11  1  0
 10 12  1  0
 12 13  2  0
 13 14  1  0
 14 15  2  0
 15 16  1  0
 15 17  1  0
 17 18  2  0
 12 18  1  0
 17 19  1  0
 19 20  1  0
 20 21  1  0
 21 22  2  0
 22 23  1  0
 23 24  2  0
 24 25  1  0
 25 26  1  0
 26 27  1  0
 27 28  1  0
 28 29  1  0
 29 30  1  0
 30 31  1  0
 26 31  1  0
 25 32  2  0
 21 32  1  0
 32 33  1  0
 19 33  2  0
M  END
>  <pIC50>  (290) 
5.40

>  <chembl_id>  (290) 
CHEMBL3797828

>  <canonical_smiles>  (290) 
CN(C)C(=O)c1cccc(c1)c2cnc(N)c(c2)c3nc4cccc(N5CCNCC5)c4[nH]3

$$$$
CHEMBL3797873
     RDKit          2D

 35 39  0  0  1  0  0  0  0  0999 V2000
    4.7079    3.7125    0.0000 C   0  0  0  0  0  0  0  0  0  0  0  0
    3.9934    3.3000    0.0000 C   0  0  0  0  0  0  0  0  0  0  0  0
    3.9934    2.4750    0.0000 C   0  0  0  0  0  0  0  0  0  0  0  0
    3.2789    2.0625    0.0000 N   0  0  0  0  0  0  0  0  0  0  0  0
    2.5645    2.4750    0.0000 C   0  0  0  0  0  0  0  0  0  0  0  0
    2.5645    3.3000    0.0000 C   0  0  0  0  0  0  0  0  0  0  0  0
    3.2789    3.7125    0.0000 N   0  0  0  0  0  0  0  0  0  0  0  0
    3.2789    1.2375    0.0000 C   0  0  0  0  0  0  0  0  0  0  0  0
    3.9934    0.8250    0.0000 C   0  0  0  0  0  0  0  0  0  0  0  0
    3.9934    0.0000    0.0000 C   0  0  0  0  0  0  0  0  0  0  0  0
    3.2789   -0.4125    0.0000 C   0  0  0  0  0  0  0  0  0  0  0  0
    2.5645    0.0000    0.0000 C   0  0  0  0  0  0  0  0  0  0  0  0
    1.7798   -0.2549    0.0000 N   0  0  0  0  0  0  0  0  0  0  0  0
    1.2949    0.4125    0.0000 C   0  0  0  0  0  0  0  0  0  0  0  0
    0.4699    0.4125    0.0000 C   0  0  0  0  0  0  0  0  0  0  0  0
    0.0574   -0.3020    0.0000 N   0  0  0  0  0  0  0  0  0  0  0  0
   -0.7676   -0.3020    0.0000 C   0  0  0  0  0  0  0  0  0  0  0  0
   -1.1801    0.4125    0.0000 C   0  0  0  0  0  0  0  0  0  0  0  0
   -0.7676    1.1270    0.0000 N   0  0  0  0  0  0  0  0  0  0  0  0
    0.0574    1.1270    0.0000 C   0  0  0  0  0  0  0  0  0  0  0  0
    0.4699    1.8414    0.0000 N   0  0  0  0  0  0  0  0  0  0  0  0
   -1.1801   -1.0164    0.0000 C   0  0  0  0  0  0  0  0  0  0  0  0
   -0.7676   -1.7309    0.0000 C   0  0  0  0  0  0  0  0  0  0  0  0
   -1.1801   -2.4454    0.0000 C   0  0  0  0  0  0  0  0  0  0  0  0
   -2.0051   -2.4454    0.0000 C   0  0  0  0  0  0  0  0  0  0  0  0
   -2.4176   -1.7309    0.0000 C   0  0  0  0  0  0  0  0  0  0  0  0
   -2.0051   -1.0164    0.0000 C   0  0  0  0  0  0  0  0  0  0  0  0
   -3.2426   -1.7309    0.0000 C   0  0  0  0  0  0  0  0  0  0  0  0
   -3.6551   -2.4454    0.0000 O   0  0  0  0  0  0  0  0  0  0  0  0
   -3.6551   -1.0164    0.0000 N   0  0  0  0  0  0  0  0  0  0  0  0
   -4.4801   -1.0164    0.0000 C   0  0  0  0  0  0  0  0  0  0  0  0
   -3.2426   -0.3020    0.0000 C   0  0  0  0  0  0  0  0  0  0  0  0
    1.7798    1.0799    0.0000 N   0  0  0  0  0  0  0  0  0  0  0  0
    1.5249    1.8646    0.0000 C   0  0  0  0  0  0  0  0  0  0  0  0
    2.5645    0.8250    0.0000 C   0  0  0  0  0  0  0  0  0  0  0  0
  2  1  1  1
  2  3  1  0
  3  4  1  0
  4  5  1  0
  5  6  1  0
  6  7  1  0
  2  7  1  0
  4  8  1  0
  8  9  2  0
  9 10  1  0
 10 11  2  0
 11 12  1  0
 12 13  1  0
 13 14  2  0
 14 15  1  0
 15 16  2  0
 16 17  1  0
 17 18  2  0
 18 19  1  0
 19 20  2  0
 15 20  1  0
 20 21  1  0
 17 22  1  0
 22 23  2  0
 23 24  1  0
 24 25  2  0
 25 26  1  0
 26 27  2  0
 22 27  1  0
 26 28  1  0
 28 29  2  0
 28 30  1  0
 30 31  1  0
 30 32  1  0
 14 33  1  0
 33 34  1  0
 33 35  1  0
  8 35  1  0
 12 35  2  0
M  END
>  <pIC50>  (291) 
5.47

>  <chembl_id>  (291) 
CHEMBL3797873

>  <canonical_smiles>  (291) 
C[C@H]1CN(CCN1)c2cccc3nc(c4nc(cnc4N)c5cccc(c5)C(=O)N(C)C)n(C)c23

$$$$
CHEMBL3798066
     RDKit          2D

 33 37  0  0  0  0  0  0  0  0999 V2000
   -1.4087   -5.6992    0.0000 C   0  0  0  0  0  0  0  0  0  0  0  0
   -1.8212   -4.9848    0.0000 N   0  0  0  0  0  0  0  0  0  0  0  0
   -2.6462   -4.9848    0.0000 C   0  0  0  0  0  0  0  0  0  0  0  0
   -1.4087   -4.2703    0.0000 C   0  0  0  0  0  0  0  0  0  0  0  0
   -0.5837   -4.2703    0.0000 O   0  0  0  0  0  0  0  0  0  0  0  0
   -1.8212   -3.5558    0.0000 C   0  0  0  0  0  0  0  0  0  0  0  0
   -2.6462   -3.5558    0.0000 C   0  0  0  0  0  0  0  0  0  0  0  0
   -3.0587   -2.8414    0.0000 C   0  0  0  0  0  0  0  0  0  0  0  0
   -2.6462   -2.1269    0.0000 C   0  0  0  0  0  0  0  0  0  0  0  0
   -1.8212   -2.1269    0.0000 C   0  0  0  0  0  0  0  0  0  0  0  0
   -1.4087   -2.8414    0.0000 C   0  0  0  0  0  0  0  0  0  0  0  0
   -1.4087   -1.4124    0.0000 C   0  0  0  0  0  0  0  0  0  0  0  0
   -1.8212   -0.6979    0.0000 C   0  0  0  0  0  0  0  0  0  0  0  0
   -1.4087    0.0165    0.0000 N   0  0  0  0  0  0  0  0  0  0  0  0
   -0.5837    0.0165    0.0000 C   0  0  0  0  0  0  0  0  0  0  0  0
   -0.1712    0.7310    0.0000 N   0  0  0  0  0  0  0  0  0  0  0  0
   -0.1712   -0.6979    0.0000 C   0  0  0  0  0  0  0  0  0  0  0  0
   -0.5837   -1.4124    0.0000 N   0  0  0  0  0  0  0  0  0  0  0  0
    0.6538   -0.6979    0.0000 C   0  0  0  0  0  0  0  0  0  0  0  0
    1.1387   -0.0305    0.0000 N   0  0  0  0  0  0  0  0  0  0  0  0
    1.9233   -0.2854    0.0000 C   0  0  0  0  0  0  0  0  0  0  0  0
    2.6378    0.1271    0.0000 C   0  0  0  0  0  0  0  0  0  0  0  0
    3.3523   -0.2854    0.0000 C   0  0  0  0  0  0  0  0  0  0  0  0
    3.3523   -1.1104    0.0000 C   0  0  0  0  0  0  0  0  0  0  0  0
    2.6378   -1.5229    0.0000 C   0  0  0  0  0  0  0  0  0  0  0  0
    2.6378   -2.3479    0.0000 N   0  0  0  0  0  0  0  0  0  0  0  0
    3.3523   -2.7604    0.0000 C   0  0  0  0  0  0  0  0  0  0  0  0
    3.3523   -3.5854    0.0000 C   0  0  0  0  0  0  0  0  0  0  0  0
    2.6378   -3.9979    0.0000 N   0  0  0  0  0  0  0  0  0  0  0  0
    1.9233   -3.5854    0.0000 C   0  0  0  0  0  0  0  0  0  0  0  0
    1.9233   -2.7604    0.0000 C   0  0  0  0  0  0  0  0  0  0  0  0
    1.9233   -1.1104    0.0000 C   0  0  0  0  0  0  0  0  0  0  0  0
    1.1387   -1.3654    0.0000 N   0  0  0  0  0  0  0  0  0  0  0  0
  1  2  1  0
  2  3  1  0
  2  4  1  0
  4  5  2  0
  4  6  1  0
  6  7  2  0
  7  8  1  0
  8  9  2  0
  9 10  1  0
 10 11  2  0
  6 11  1  0
 10 12  1  0
 12 13  2  0
 13 14  1  0
 14 15  2  0
 15 16  1  0
 15 17  1  0
 17 18  2  0
 12 18  1  0
 17 19  1  0
 19 20  1  0
 20 21  1  0
 21 22  2  0
 22 23  1  0
 23 24  2  0
 24 25  1  0
 25 26  1  0
 26 27  1  0
 27 28  1  0
 28 29  1  0
 29 30  1  0
 30 31  1  0
 26 31  1  0
 25 32  2  0
 21 32  1  0
 32 33  1  0
 19 33  2  0
M  END
>  <pIC50>  (292) 
4.96

>  <chembl_id>  (292) 
CHEMBL3798066

>  <canonical_smiles>  (292) 
CN(C)C(=O)c1cccc(c1)c2cnc(N)c(n2)c3nc4cccc(N5CCNCC5)c4[nH]3

$$$$
CHEMBL3798762
     RDKit          2D

 34 38  0  0  0  0  0  0  0  0999 V2000
   -1.4087   -5.6992    0.0000 C   0  0  0  0  0  0  0  0  0  0  0  0
   -1.8212   -4.9848    0.0000 N   0  0  0  0  0  0  0  0  0  0  0  0
   -2.6462   -4.9848    0.0000 C   0  0  0  0  0  0  0  0  0  0  0  0
   -1.4087   -4.2703    0.0000 C   0  0  0  0  0  0  0  0  0  0  0  0
   -0.5837   -4.2703    0.0000 O   0  0  0  0  0  0  0  0  0  0  0  0
   -1.8212   -3.5558    0.0000 C   0  0  0  0  0  0  0  0  0  0  0  0
   -2.6462   -3.5558    0.0000 C   0  0  0  0  0  0  0  0  0  0  0  0
   -3.0587   -2.8414    0.0000 C   0  0  0  0  0  0  0  0  0  0  0  0
   -2.6462   -2.1269    0.0000 C   0  0  0  0  0  0  0  0  0  0  0  0
   -1.8212   -2.1269    0.0000 C   0  0  0  0  0  0  0  0  0  0  0  0
   -1.4087   -2.8414    0.0000 C   0  0  0  0  0  0  0  0  0  0  0  0
   -1.4087   -1.4124    0.0000 C   0  0  0  0  0  0  0  0  0  0  0  0
   -1.8212   -0.6979    0.0000 C   0  0  0  0  0  0  0  0  0  0  0  0
   -1.4087    0.0165    0.0000 N   0  0  0  0  0  0  0  0  0  0  0  0
   -0.5837    0.0165    0.0000 C   0  0  0  0  0  0  0  0  0  0  0  0
   -0.1712    0.7310    0.0000 N   0  0  0  0  0  0  0  0  0  0  0  0
   -0.1712   -0.6979    0.0000 C   0  0  0  0  0  0  0  0  0  0  0  0
   -0.5837   -1.4124    0.0000 N   0  0  0  0  0  0  0  0  0  0  0  0
    0.6538   -0.6979    0.0000 C   0  0  0  0  0  0  0  0  0  0  0  0
    1.1387   -0.0305    0.0000 N   0  0  0  0  0  0  0  0  0  0  0  0
    1.9233   -0.2854    0.0000 C   0  0  0  0  0  0  0  0  0  0  0  0
    2.6378    0.1271    0.0000 C   0  0  0  0  0  0  0  0  0  0  0  0
    3.3523   -0.2854    0.0000 C   0  0  0  0  0  0  0  0  0  0  0  0
    3.3523   -1.1104    0.0000 C   0  0  0  0  0  0  0  0  0  0  0  0
    2.6378   -1.5229    0.0000 C   0  0  0  0  0  0  0  0  0  0  0  0
    2.6378   -2.3479    0.0000 N   0  0  0  0  0  0  0  0  0  0  0  0
    3.3523   -2.7604    0.0000 C   0  0  0  0  0  0  0  0  0  0  0  0
    3.3523   -3.5854    0.0000 C   0  0  0  0  0  0  0  0  0  0  0  0
    2.6378   -3.9979    0.0000 N   0  0  0  0  0  0  0  0  0  0  0  0
    1.9233   -3.5854    0.0000 C   0  0  0  0  0  0  0  0  0  0  0  0
    1.9233   -2.7604    0.0000 C   0  0  0  0  0  0  0  0  0  0  0  0
    1.9233   -1.1104    0.0000 C   0  0  0  0  0  0  0  0  0  0  0  0
    1.1387   -1.3654    0.0000 N   0  0  0  0  0  0  0  0  0  0  0  0
    0.8838   -2.1500    0.0000 C   0  0  0  0  0  0  0  0  0  0  0  0
  1  2  1  0
  2  3  1  0
  2  4  1  0
  4  5  2  0
  4  6  1  0
  6  7  2  0
  7  8  1  0
  8  9  2  0
  9 10  1  0
 10 11  2  0
  6 11  1  0
 10 12  1  0
 12 13  2  0
 13 14  1  0
 14 15  2  0
 15 16  1  0
 15 17  1  0
 17 18  2  0
 12 18  1  0
 17 19  1  0
 19 20  2  0
 20 21  1  0
 21 22  2  0
 22 23  1  0
 23 24  2  0
 24 25  1  0
 25 26  1  0
 26 27  1  0
 27 28  1  0
 28 29  1  0
 29 30  1  0
 30 31  1  0
 26 31  1  0
 25 32  2  0
 21 32  1  0
 32 33  1  0
 19 33  1  0
 33 34  1  0
M  END
>  <pIC50>  (293) 
5.85

>  <chembl_id>  (293) 
CHEMBL3798762

>  <canonical_smiles>  (293) 
CN(C)C(=O)c1cccc(c1)c2cnc(N)c(n2)c3nc4cccc(N5CCNCC5)c4n3C

$$$$
CHEMBL3799935
     RDKit          2D

 22 25  0  0  0  0  0  0  0  0999 V2000
   -0.1712   -2.1269    0.0000 N   0  0  0  0  0  0  0  0  0  0  0  0
   -0.5837   -1.4124    0.0000 C   0  0  0  0  0  0  0  0  0  0  0  0
   -1.4087   -1.4124    0.0000 N   0  0  0  0  0  0  0  0  0  0  0  0
   -1.8212   -0.6979    0.0000 C   0  0  0  0  0  0  0  0  0  0  0  0
   -1.4087    0.0165    0.0000 C   0  0  0  0  0  0  0  0  0  0  0  0
   -0.5837    0.0165    0.0000 C   0  0  0  0  0  0  0  0  0  0  0  0
   -0.1712   -0.6979    0.0000 C   0  0  0  0  0  0  0  0  0  0  0  0
    0.6538   -0.6979    0.0000 C   0  0  0  0  0  0  0  0  0  0  0  0
    1.1387   -0.0305    0.0000 N   0  0  0  0  0  0  0  0  0  0  0  0
    1.9233   -0.2854    0.0000 C   0  0  0  0  0  0  0  0  0  0  0  0
    2.6378    0.1271    0.0000 C   0  0  0  0  0  0  0  0  0  0  0  0
    3.3523   -0.2854    0.0000 C   0  0  0  0  0  0  0  0  0  0  0  0
    3.3523   -1.1104    0.0000 C   0  0  0  0  0  0  0  0  0  0  0  0
    2.6378   -1.5229    0.0000 C   0  0  0  0  0  0  0  0  0  0  0  0
    1.9233   -1.1104    0.0000 C   0  0  0  0  0  0  0  0  0  0  0  0
    1.1387   -1.3654    0.0000 N   0  0  0  0  0  0  0  0  0  0  0  0
   -1.8212    0.7310    0.0000 C   0  0  0  0  0  0  0  0  0  0  0  0
   -2.6462    0.7310    0.0000 C   0  0  0  0  0  0  0  0  0  0  0  0
   -3.0587    1.4455    0.0000 C   0  0  0  0  0  0  0  0  0  0  0  0
   -2.6462    2.1599    0.0000 C   0  0  0  0  0  0  0  0  0  0  0  0
   -1.8212    2.1599    0.0000 C   0  0  0  0  0  0  0  0  0  0  0  0
   -1.4087    1.4455    0.0000 C   0  0  0  0  0  0  0  0  0  0  0  0
  1  2  1  0
  2  3  2  0
  3  4  1  0
  4  5  2  0
  5  6  1  0
  6  7  2  0
  2  7  1  0
  7  8  1  0
  8  9  2  0
  9 10  1  0
 10 11  2  0
 11 12  1  0
 12 13  2  0
 13 14  1  0
 14 15  2  0
 10 15  1  0
 15 16  1  0
  8 16  1  0
  5 17  1  0
 17 18  2  0
 18 19  1  0
 19 20  2  0
 20 21  1  0
 21 22  2  0
 17 22  1  0
M  END
>  <pIC50>  (294) 
5.89

>  <chembl_id>  (294) 
CHEMBL3799935

>  <canonical_smiles>  (294) 
Nc1ncc(cc1c2nc3ccccc3[nH]2)c4ccccc4

$$$$
CHEMBL380331
     RDKit          2D

 28 31  0  0  0  0  0  0  0  0999 V2000
    4.0668    5.6479    0.0000 N   0  0  0  0  0  0  0  0  0  0  0  0
    4.0668    4.8229    0.0000 C   0  0  0  0  0  0  0  0  0  0  0  0
    4.7812    4.4104    0.0000 C   0  0  0  0  0  0  0  0  0  0  0  0
    4.7812    3.5854    0.0000 C   0  0  0  0  0  0  0  0  0  0  0  0
    4.0668    3.1729    0.0000 C   0  0  0  0  0  0  0  0  0  0  0  0
    3.3523    3.5854    0.0000 C   0  0  0  0  0  0  0  0  0  0  0  0
    3.3523    4.4104    0.0000 C   0  0  0  0  0  0  0  0  0  0  0  0
    4.0668    2.3479    0.0000 N   0  0  0  0  0  0  0  0  0  0  0  0
    3.3523    1.9354    0.0000 C   0  0  0  0  0  0  0  0  0  0  0  0
    3.3523    1.1104    0.0000 C   0  0  0  0  0  0  0  0  0  0  0  0
    2.6378    0.6979    0.0000 C   0  0  0  0  0  0  0  0  0  0  0  0
    2.6378   -0.1271    0.0000 N   0  0  0  0  0  0  0  0  0  0  0  0
    1.9233   -0.5396    0.0000 C   0  0  0  0  0  0  0  0  0  0  0  0
    1.9233   -1.3646    0.0000 C   0  0  0  0  0  0  0  0  0  0  0  0
    1.2089   -1.7771    0.0000 C   0  0  0  0  0  0  0  0  0  0  0  0
    0.4944   -1.3646    0.0000 C   0  0  0  0  0  0  0  0  0  0  0  0
    0.4944   -0.5396    0.0000 C   0  0  0  0  0  0  0  0  0  0  0  0
    1.2089   -0.1271    0.0000 C   0  0  0  0  0  0  0  0  0  0  0  0
   -0.2201   -1.7771    0.0000 S   0  0  0  0  0  0  0  0  0  0  0  0
   -0.9345   -2.1896    0.0000 O   0  0  0  0  0  0  0  0  0  0  0  0
   -0.6326   -1.0626    0.0000 O   0  0  0  0  0  0  0  0  0  0  0  0
    0.1924   -2.4915    0.0000 N   0  0  0  0  0  0  0  0  0  0  0  0
    1.9233    1.1104    0.0000 N   0  0  0  0  0  0  0  0  0  0  0  0
    1.1387    0.8555    0.0000 N   0  0  0  0  0  0  0  0  0  0  0  0
    0.6538    1.5229    0.0000 C   0  0  0  0  0  0  0  0  0  0  0  0
    1.1387    2.1904    0.0000 N   0  0  0  0  0  0  0  0  0  0  0  0
    1.9233    1.9354    0.0000 C   0  0  0  0  0  0  0  0  0  0  0  0
    2.6378    2.3479    0.0000 N   0  0  0  0  0  0  0  0  0  0  0  0
  2  1  1  6
  2  3  1  0
  3  4  1  0
  5  4  1  0
  5  6  1  0
  6  7  1  0
  2  7  1  0
  5  8  1  1
  8  9  1  0
  9 10  1  0
 10 11  2  0
 11 12  1  0
 12 13  1  0
 13 14  2  0
 14 15  1  0
 15 16  2  0
 16 17  1  0
 17 18  2  0
 13 18  1  0
 16 19  1  0
 19 20  2  0
 19 21  2  0
 19 22  1  0
 11 23  1  0
 23 24  1  0
 24 25  2  0
 25 26  1  0
 26 27  2  0
 23 27  1  0
 27 28  1  0
  9 28  2  0
M  END
>  <pIC50>  (295) 
6.57

>  <chembl_id>  (295) 
CHEMBL380331

>  <canonical_smiles>  (295) 
N[C@@H]1CC[C@H](CC1)Nc2cc(Nc3ccc(cc3)S(=O)(=O)N)n4ncnc4n2

$$$$
CHEMBL3822543
     RDKit          2D

 29 33  0  0  0  0  0  0  0  0999 V2000
    3.0667   -5.3618    0.0000 C   0  0  0  0  0  0  0  0  0  0  0  0
    3.1530   -4.5413    0.0000 C   0  0  0  0  0  0  0  0  0  0  0  0
    2.5399   -3.9893    0.0000 C   0  0  0  0  0  0  0  0  0  0  0  0
    1.7329   -4.1608    0.0000 N   0  0  0  0  0  0  0  0  0  0  0  0
    1.1809   -3.5477    0.0000 C   0  0  0  0  0  0  0  0  0  0  0  0
    0.3739   -3.7192    0.0000 N   0  0  0  0  0  0  0  0  0  0  0  0
   -0.1781   -3.1062    0.0000 C   0  0  0  0  0  0  0  0  0  0  0  0
    0.0768   -2.3215    0.0000 C   0  0  0  0  0  0  0  0  0  0  0  0
   -0.4752   -1.7084    0.0000 Cl  0  0  0  0  0  0  0  0  0  0  0  0
    0.8838   -2.1500    0.0000 C   0  0  0  0  0  0  0  0  0  0  0  0
    1.4358   -2.7631    0.0000 N   0  0  0  0  0  0  0  0  0  0  0  0
    1.1387   -1.3654    0.0000 C   0  0  0  0  0  0  0  0  0  0  0  0
    0.6538   -0.6979    0.0000 C   0  0  0  0  0  0  0  0  0  0  0  0
    1.1387   -0.0305    0.0000 N   0  0  0  0  0  0  0  0  0  0  0  0
    1.9233   -0.2854    0.0000 C   0  0  0  0  0  0  0  0  0  0  0  0
    2.6378    0.1271    0.0000 C   0  0  0  0  0  0  0  0  0  0  0  0
    3.3523   -0.2854    0.0000 C   0  0  0  0  0  0  0  0  0  0  0  0
    3.3523   -1.1104    0.0000 C   0  0  0  0  0  0  0  0  0  0  0  0
    2.6378   -1.5229    0.0000 C   0  0  0  0  0  0  0  0  0  0  0  0
    1.9233   -1.1104    0.0000 N   0  0  0  0  0  0  0  0  0  0  0  0
    2.8754   -3.2356    0.0000 C   0  0  0  0  0  0  0  0  0  0  0  0
    3.6959   -3.3218    0.0000 N   0  0  0  0  0  0  0  0  0  0  0  0
    3.8674   -4.1288    0.0000 N   0  0  0  0  0  0  0  0  0  0  0  0
    4.6211   -4.4644    0.0000 C   0  0  0  0  0  0  0  0  0  0  0  0
    5.2886   -3.9795    0.0000 C   0  0  0  0  0  0  0  0  0  0  0  0
    6.0422   -4.3150    0.0000 C   0  0  0  0  0  0  0  0  0  0  0  0
    6.1285   -5.1355    0.0000 N   0  0  0  0  0  0  0  0  0  0  0  0
    5.4610   -5.6204    0.0000 C   0  0  0  0  0  0  0  0  0  0  0  0
    4.7074   -5.2849    0.0000 C   0  0  0  0  0  0  0  0  0  0  0  0
  1  2  1  0
  2  3  2  0
  3  4  1  0
  4  5  1  0
  5  6  2  0
  6  7  1  0
  7  8  2  0
  8  9  1  0
  8 10  1  0
 10 11  2  0
  5 11  1  0
 10 12  1  0
 12 13  2  0
 13 14  1  0
 14 15  2  0
 15 16  1  0
 16 17  2  0
 17 18  1  0
 18 19  2  0
 19 20  1  0
 12 20  1  0
 15 20  1  0
  3 21  1  0
 21 22  2  0
 22 23  1  0
  2 23  1  0
 23 24  1  0
 24 25  1  0
 25 26  1  0
 26 27  1  0
 27 28  1  0
 28 29  1  0
 24 29  1  0
M  END
>  <pIC50>  (296) 
6.41

>  <chembl_id>  (296) 
CHEMBL3822543

>  <canonical_smiles>  (296) 
Cc1c(Nc2ncc(Cl)c(n2)c3cnc4ccccn34)cnn1C5CCNCC5

$$$$
CHEMBL3822583
     RDKit          2D

 32 36  0  0  0  0  0  0  0  0999 V2000
    3.3047   -9.5903    0.0000 C   0  0  0  0  0  0  0  0  0  0  0  0
    2.4977   -9.4188    0.0000 C   0  0  0  0  0  0  0  0  0  0  0  0
    1.9457  -10.0319    0.0000 O   0  0  0  0  0  0  0  0  0  0  0  0
    2.2428   -8.6342    0.0000 N   0  0  0  0  0  0  0  0  0  0  0  0
    1.4358   -8.4627    0.0000 C   0  0  0  0  0  0  0  0  0  0  0  0
    1.1809   -7.6780    0.0000 C   0  0  0  0  0  0  0  0  0  0  0  0
    1.7329   -7.0649    0.0000 C   0  0  0  0  0  0  0  0  0  0  0  0
    2.5399   -7.2365    0.0000 C   0  0  0  0  0  0  0  0  0  0  0  0
    2.7948   -8.0211    0.0000 C   0  0  0  0  0  0  0  0  0  0  0  0
    1.4780   -6.2803    0.0000 N   0  0  0  0  0  0  0  0  0  0  0  0
    0.6933   -6.0254    0.0000 N   0  0  0  0  0  0  0  0  0  0  0  0
    0.6933   -5.2004    0.0000 C   0  0  0  0  0  0  0  0  0  0  0  0
    1.4780   -4.9454    0.0000 C   0  0  0  0  0  0  0  0  0  0  0  0
    1.7329   -4.1608    0.0000 N   0  0  0  0  0  0  0  0  0  0  0  0
    1.1809   -3.5477    0.0000 C   0  0  0  0  0  0  0  0  0  0  0  0
    0.3739   -3.7192    0.0000 N   0  0  0  0  0  0  0  0  0  0  0  0
   -0.1781   -3.1062    0.0000 C   0  0  0  0  0  0  0  0  0  0  0  0
    0.0768   -2.3215    0.0000 C   0  0  0  0  0  0  0  0  0  0  0  0
   -0.4752   -1.7084    0.0000 Cl  0  0  0  0  0  0  0  0  0  0  0  0
    0.8838   -2.1500    0.0000 C   0  0  0  0  0  0  0  0  0  0  0  0
    1.4358   -2.7631    0.0000 N   0  0  0  0  0  0  0  0  0  0  0  0
    1.1387   -1.3654    0.0000 C   0  0  0  0  0  0  0  0  0  0  0  0
    0.6538   -0.6979    0.0000 C   0  0  0  0  0  0  0  0  0  0  0  0
    1.1387   -0.0305    0.0000 N   0  0  0  0  0  0  0  0  0  0  0  0
    1.9233   -0.2854    0.0000 C   0  0  0  0  0  0  0  0  0  0  0  0
    2.6378    0.1271    0.0000 C   0  0  0  0  0  0  0  0  0  0  0  0
    3.3523   -0.2854    0.0000 C   0  0  0  0  0  0  0  0  0  0  0  0
    3.3523   -1.1104    0.0000 C   0  0  0  0  0  0  0  0  0  0  0  0
    2.6378   -1.5229    0.0000 C   0  0  0  0  0  0  0  0  0  0  0  0
    1.9233   -1.1104    0.0000 N   0  0  0  0  0  0  0  0  0  0  0  0
    1.9629   -5.6129    0.0000 C   0  0  0  0  0  0  0  0  0  0  0  0
    2.7879   -5.6129    0.0000 C   0  0  0  0  0  0  0  0  0  0  0  0
  1  2  1  0
  2  3  2  0
  2  4  1  0
  4  5  1  0
  5  6  1  0
  6  7  1  0
  7  8  1  0
  8  9  1  0
  4  9  1  0
  7 10  1  0
 10 11  1  0
 11 12  2  0
 12 13  1  0
 13 14  1  0
 14 15  1  0
 15 16  2  0
 16 17  1  0
 17 18  2  0
 18 19  1  0
 18 20  1  0
 20 21  2  0
 15 21  1  0
 20 22  1  0
 22 23  2  0
 23 24  1  0
 24 25  2  0
 25 26  1  0
 26 27  2  0
 27 28  1  0
 28 29  2  0
 29 30  1  0
 22 30  1  0
 25 30  1  0
 13 31  2  0
 10 31  1  0
 31 32  1  0
M  END
>  <pIC50>  (297) 
6.63

>  <chembl_id>  (297) 
CHEMBL3822583

>  <canonical_smiles>  (297) 
CC(=O)N1CCC(CC1)n2ncc(Nc3ncc(Cl)c(n3)c4cnc5ccccn45)c2C

$$$$
CHEMBL3822619
     RDKit          2D

 33 37  0  0  0  0  0  0  0  0999 V2000
    3.7342   -5.8467    0.0000 C   0  0  0  0  0  0  0  0  0  0  0  0
    3.0667   -5.3618    0.0000 C   0  0  0  0  0  0  0  0  0  0  0  0
    3.1530   -4.5413    0.0000 C   0  0  0  0  0  0  0  0  0  0  0  0
    3.8674   -4.1288    0.0000 N   0  0  0  0  0  0  0  0  0  0  0  0
    3.6959   -3.3218    0.0000 N   0  0  0  0  0  0  0  0  0  0  0  0
    2.8754   -3.2356    0.0000 C   0  0  0  0  0  0  0  0  0  0  0  0
    2.5399   -3.9893    0.0000 C   0  0  0  0  0  0  0  0  0  0  0  0
    1.7329   -4.1608    0.0000 N   0  0  0  0  0  0  0  0  0  0  0  0
    1.1809   -3.5477    0.0000 C   0  0  0  0  0  0  0  0  0  0  0  0
    0.3739   -3.7192    0.0000 N   0  0  0  0  0  0  0  0  0  0  0  0
   -0.1781   -3.1062    0.0000 C   0  0  0  0  0  0  0  0  0  0  0  0
    0.0768   -2.3215    0.0000 C   0  0  0  0  0  0  0  0  0  0  0  0
   -0.4752   -1.7084    0.0000 Cl  0  0  0  0  0  0  0  0  0  0  0  0
    0.8838   -2.1500    0.0000 C   0  0  0  0  0  0  0  0  0  0  0  0
    1.4358   -2.7631    0.0000 N   0  0  0  0  0  0  0  0  0  0  0  0
    1.1387   -1.3654    0.0000 C   0  0  0  0  0  0  0  0  0  0  0  0
    0.6538   -0.6979    0.0000 C   0  0  0  0  0  0  0  0  0  0  0  0
    1.1387   -0.0305    0.0000 N   0  0  0  0  0  0  0  0  0  0  0  0
    1.9233   -0.2854    0.0000 N   0  0  0  0  0  0  0  0  0  0  0  0
    2.6378    0.1271    0.0000 C   0  0  0  0  0  0  0  0  0  0  0  0
    3.3523   -0.2854    0.0000 C   0  0  0  0  0  0  0  0  0  0  0  0
    3.3523   -1.1104    0.0000 C   0  0  0  0  0  0  0  0  0  0  0  0
    2.6378   -1.5229    0.0000 C   0  0  0  0  0  0  0  0  0  0  0  0
    1.9233   -1.1104    0.0000 C   0  0  0  0  0  0  0  0  0  0  0  0
    4.2480   -2.7088    0.0000 C   0  0  0  0  0  0  0  0  0  0  0  0
    3.9930   -1.9241    0.0000 C   0  0  0  0  0  0  0  0  0  0  0  0
    4.5450   -1.3110    0.0000 C   0  0  0  0  0  0  0  0  0  0  0  0
    5.3520   -1.4826    0.0000 N   0  0  0  0  0  0  0  0  0  0  0  0
    5.6070   -2.2672    0.0000 C   0  0  0  0  0  0  0  0  0  0  0  0
    5.0549   -2.8803    0.0000 C   0  0  0  0  0  0  0  0  0  0  0  0
    5.9040   -0.8695    0.0000 C   0  0  0  0  0  0  0  0  0  0  0  0
    5.6491   -0.0848    0.0000 O   0  0  0  0  0  0  0  0  0  0  0  0
    6.7110   -1.0410    0.0000 C   0  0  0  0  0  0  0  0  0  0  0  0
  1  2  1  0
  2  3  1  0
  3  4  2  0
  4  5  1  0
  5  6  1  0
  6  7  2  0
  3  7  1  0
  7  8  1  0
  8  9  1  0
  9 10  2  0
 10 11  1  0
 11 12  2  0
 12 13  1  0
 12 14  1  0
 14 15  2  0
  9 15  1  0
 14 16  1  0
 16 17  1  0
 17 18  2  0
 18 19  1  0
 19 20  1  0
 20 21  2  0
 21 22  1  0
 22 23  2  0
 23 24  1  0
 16 24  2  0
 19 24  1  0
  5 25  1  0
 25 26  1  0
 26 27  1  0
 27 28  1  0
 28 29  1  0
 29 30  1  0
 25 30  1  0
 28 31  1  0
 31 32  2  0
 31 33  1  0
M  END
>  <pIC50>  (298) 
6.95

>  <chembl_id>  (298) 
CHEMBL3822619

>  <canonical_smiles>  (298) 
CCc1nn(cc1Nc2ncc(Cl)c(n2)c3cnn4ccccc34)C5CCN(CC5)C(=O)C

$$$$
CHEMBL3822858
     RDKit          2D

 33 37  0  0  0  0  0  0  0  0999 V2000
    3.7342   -5.8467    0.0000 C   0  0  0  0  0  0  0  0  0  0  0  0
    3.0667   -5.3618    0.0000 O   0  0  0  0  0  0  0  0  0  0  0  0
    3.1530   -4.5413    0.0000 C   0  0  0  0  0  0  0  0  0  0  0  0
    3.8674   -4.1288    0.0000 N   0  0  0  0  0  0  0  0  0  0  0  0
    3.6959   -3.3218    0.0000 N   0  0  0  0  0  0  0  0  0  0  0  0
    2.8754   -3.2356    0.0000 C   0  0  0  0  0  0  0  0  0  0  0  0
    2.5399   -3.9893    0.0000 C   0  0  0  0  0  0  0  0  0  0  0  0
    1.7329   -4.1608    0.0000 N   0  0  0  0  0  0  0  0  0  0  0  0
    1.1809   -3.5477    0.0000 C   0  0  0  0  0  0  0  0  0  0  0  0
    0.3739   -3.7192    0.0000 N   0  0  0  0  0  0  0  0  0  0  0  0
   -0.1781   -3.1062    0.0000 C   0  0  0  0  0  0  0  0  0  0  0  0
    0.0768   -2.3215    0.0000 C   0  0  0  0  0  0  0  0  0  0  0  0
   -0.4752   -1.7084    0.0000 Cl  0  0  0  0  0  0  0  0  0  0  0  0
    0.8838   -2.1500    0.0000 C   0  0  0  0  0  0  0  0  0  0  0  0
    1.4358   -2.7631    0.0000 N   0  0  0  0  0  0  0  0  0  0  0  0
    1.1387   -1.3654    0.0000 C   0  0  0  0  0  0  0  0  0  0  0  0
    0.6538   -0.6979    0.0000 C   0  0  0  0  0  0  0  0  0  0  0  0
    1.1387   -0.0305    0.0000 N   0  0  0  0  0  0  0  0  0  0  0  0
    1.9233   -0.2854    0.0000 C   0  0  0  0  0  0  0  0  0  0  0  0
    2.6378    0.1271    0.0000 C   0  0  0  0  0  0  0  0  0  0  0  0
    3.3523   -0.2854    0.0000 C   0  0  0  0  0  0  0  0  0  0  0  0
    3.3523   -1.1104    0.0000 C   0  0  0  0  0  0  0  0  0  0  0  0
    2.6378   -1.5229    0.0000 C   0  0  0  0  0  0  0  0  0  0  0  0
    1.9233   -1.1104    0.0000 N   0  0  0  0  0  0  0  0  0  0  0  0
    4.2480   -2.7088    0.0000 C   0  0  0  0  0  0  0  0  0  0  0  0
    3.9930   -1.9241    0.0000 C   0  0  0  0  0  0  0  0  0  0  0  0
    4.5450   -1.3110    0.0000 C   0  0  0  0  0  0  0  0  0  0  0  0
    5.3520   -1.4826    0.0000 N   0  0  0  0  0  0  0  0  0  0  0  0
    5.6070   -2.2672    0.0000 C   0  0  0  0  0  0  0  0  0  0  0  0
    5.0549   -2.8803    0.0000 C   0  0  0  0  0  0  0  0  0  0  0  0
    5.9040   -0.8695    0.0000 C   0  0  0  0  0  0  0  0  0  0  0  0
    5.6491   -0.0848    0.0000 O   0  0  0  0  0  0  0  0  0  0  0  0
    6.7110   -1.0410    0.0000 C   0  0  0  0  0  0  0  0  0  0  0  0
  1  2  1  0
  2  3  1  0
  3  4  2  0
  4  5  1  0
  5  6  1  0
  6  7  2  0
  3  7  1  0
  7  8  1  0
  8  9  1  0
  9 10  2  0
 10 11  1  0
 11 12  2  0
 12 13  1  0
 12 14  1  0
 14 15  2  0
  9 15  1  0
 14 16  1  0
 16 17  2  0
 17 18  1  0
 18 19  2  0
 19 20  1  0
 20 21  2  0
 21 22  1  0
 22 23  2  0
 23 24  1  0
 16 24  1  0
 19 24  1  0
  5 25  1  0
 25 26  1  0
 26 27  1  0
 27 28  1  0
 28 29  1  0
 29 30  1  0
 25 30  1  0
 28 31  1  0
 31 32  2  0
 31 33  1  0
M  END
>  <pIC50>  (299) 
6.31

>  <chembl_id>  (299) 
CHEMBL3822858

>  <canonical_smiles>  (299) 
COc1nn(cc1Nc2ncc(Cl)c(n2)c3cnc4ccccn34)C5CCN(CC5)C(=O)C

$$$$
CHEMBL3822943
     RDKit          2D

 34 38  0  0  0  0  0  0  0  0999 V2000
    4.4879   -5.5112    0.0000 C   0  0  0  0  0  0  0  0  0  0  0  0
    3.7342   -5.8467    0.0000 C   0  0  0  0  0  0  0  0  0  0  0  0
    3.0667   -5.3618    0.0000 O   0  0  0  0  0  0  0  0  0  0  0  0
    3.1530   -4.5413    0.0000 C   0  0  0  0  0  0  0  0  0  0  0  0
    3.8674   -4.1288    0.0000 N   0  0  0  0  0  0  0  0  0  0  0  0
    3.6959   -3.3218    0.0000 N   0  0  0  0  0  0  0  0  0  0  0  0
    2.8754   -3.2356    0.0000 C   0  0  0  0  0  0  0  0  0  0  0  0
    2.5399   -3.9893    0.0000 C   0  0  0  0  0  0  0  0  0  0  0  0
    1.7329   -4.1608    0.0000 N   0  0  0  0  0  0  0  0  0  0  0  0
    1.1809   -3.5477    0.0000 C   0  0  0  0  0  0  0  0  0  0  0  0
    0.3739   -3.7192    0.0000 N   0  0  0  0  0  0  0  0  0  0  0  0
   -0.1781   -3.1062    0.0000 C   0  0  0  0  0  0  0  0  0  0  0  0
    0.0768   -2.3215    0.0000 C   0  0  0  0  0  0  0  0  0  0  0  0
   -0.4752   -1.7084    0.0000 Cl  0  0  0  0  0  0  0  0  0  0  0  0
    0.8838   -2.1500    0.0000 C   0  0  0  0  0  0  0  0  0  0  0  0
    1.4358   -2.7631    0.0000 N   0  0  0  0  0  0  0  0  0  0  0  0
    1.1387   -1.3654    0.0000 C   0  0  0  0  0  0  0  0  0  0  0  0
    0.6538   -0.6979    0.0000 C   0  0  0  0  0  0  0  0  0  0  0  0
    1.1387   -0.0305    0.0000 N   0  0  0  0  0  0  0  0  0  0  0  0
    1.9233   -0.2854    0.0000 N   0  0  0  0  0  0  0  0  0  0  0  0
    2.6378    0.1271    0.0000 C   0  0  0  0  0  0  0  0  0  0  0  0
    3.3523   -0.2854    0.0000 C   0  0  0  0  0  0  0  0  0  0  0  0
    3.3523   -1.1104    0.0000 C   0  0  0  0  0  0  0  0  0  0  0  0
    2.6378   -1.5229    0.0000 C   0  0  0  0  0  0  0  0  0  0  0  0
    1.9233   -1.1104    0.0000 C   0  0  0  0  0  0  0  0  0  0  0  0
    4.2480   -2.7088    0.0000 C   0  0  0  0  0  0  0  0  0  0  0  0
    3.9930   -1.9241    0.0000 C   0  0  0  0  0  0  0  0  0  0  0  0
    4.5450   -1.3110    0.0000 C   0  0  0  0  0  0  0  0  0  0  0  0
    5.3520   -1.4826    0.0000 N   0  0  0  0  0  0  0  0  0  0  0  0
    5.6070   -2.2672    0.0000 C   0  0  0  0  0  0  0  0  0  0  0  0
    5.0549   -2.8803    0.0000 C   0  0  0  0  0  0  0  0  0  0  0  0
    5.9040   -0.8695    0.0000 C   0  0  0  0  0  0  0  0  0  0  0  0
    5.6491   -0.0848    0.0000 O   0  0  0  0  0  0  0  0  0  0  0  0
    6.7110   -1.0410    0.0000 C   0  0  0  0  0  0  0  0  0  0  0  0
  1  2  1  0
  2  3  1  0
  3  4  1  0
  4  5  2  0
  5  6  1  0
  6  7  1  0
  7  8  2  0
  4  8  1  0
  8  9  1  0
  9 10  1  0
 10 11  2  0
 11 12  1  0
 12 13  2  0
 13 14  1  0
 13 15  1  0
 15 16  2  0
 10 16  1  0
 15 17  1  0
 17 18  1  0
 18 19  2  0
 19 20  1  0
 20 21  1  0
 21 22  2  0
 22 23  1  0
 23 24  2  0
 24 25  1  0
 17 25  2  0
 20 25  1  0
  6 26  1  0
 26 27  1  0
 27 28  1  0
 28 29  1  0
 29 30  1  0
 30 31  1  0
 26 31  1  0
 29 32  1  0
 32 33  2  0
 32 34  1  0
M  END
>  <pIC50>  (300) 
6.26

>  <chembl_id>  (300) 
CHEMBL3822943

>  <canonical_smiles>  (300) 
CCOc1nn(cc1Nc2ncc(Cl)c(n2)c3cnn4ccccc34)C5CCN(CC5)C(=O)C

$$$$
CHEMBL3822962
     RDKit          2D

 33 37  0  0  0  0  0  0  0  0999 V2000
    3.7342   -5.8467    0.0000 C   0  0  0  0  0  0  0  0  0  0  0  0
    3.0667   -5.3618    0.0000 C   0  0  0  0  0  0  0  0  0  0  0  0
    3.1530   -4.5413    0.0000 C   0  0  0  0  0  0  0  0  0  0  0  0
    2.5399   -3.9893    0.0000 C   0  0  0  0  0  0  0  0  0  0  0  0
    1.7329   -4.1608    0.0000 N   0  0  0  0  0  0  0  0  0  0  0  0
    1.1809   -3.5477    0.0000 C   0  0  0  0  0  0  0  0  0  0  0  0
    0.3739   -3.7192    0.0000 N   0  0  0  0  0  0  0  0  0  0  0  0
   -0.1781   -3.1062    0.0000 C   0  0  0  0  0  0  0  0  0  0  0  0
    0.0768   -2.3215    0.0000 C   0  0  0  0  0  0  0  0  0  0  0  0
   -0.4752   -1.7084    0.0000 Cl  0  0  0  0  0  0  0  0  0  0  0  0
    0.8838   -2.1500    0.0000 C   0  0  0  0  0  0  0  0  0  0  0  0
    1.4358   -2.7631    0.0000 N   0  0  0  0  0  0  0  0  0  0  0  0
    1.1387   -1.3654    0.0000 C   0  0  0  0  0  0  0  0  0  0  0  0
    0.6538   -0.6979    0.0000 C   0  0  0  0  0  0  0  0  0  0  0  0
    1.1387   -0.0305    0.0000 N   0  0  0  0  0  0  0  0  0  0  0  0
    1.9233   -0.2854    0.0000 N   0  0  0  0  0  0  0  0  0  0  0  0
    2.6378    0.1271    0.0000 C   0  0  0  0  0  0  0  0  0  0  0  0
    3.3523   -0.2854    0.0000 C   0  0  0  0  0  0  0  0  0  0  0  0
    3.3523   -1.1104    0.0000 C   0  0  0  0  0  0  0  0  0  0  0  0
    2.6378   -1.5229    0.0000 C   0  0  0  0  0  0  0  0  0  0  0  0
    1.9233   -1.1104    0.0000 C   0  0  0  0  0  0  0  0  0  0  0  0
    2.8754   -3.2356    0.0000 C   0  0  0  0  0  0  0  0  0  0  0  0
    3.6959   -3.3218    0.0000 N   0  0  0  0  0  0  0  0  0  0  0  0
    3.8674   -4.1288    0.0000 N   0  0  0  0  0  0  0  0  0  0  0  0
    4.6211   -4.4644    0.0000 C   0  0  0  0  0  0  0  0  0  0  0  0
    5.2886   -3.9795    0.0000 C   0  0  0  0  0  0  0  0  0  0  0  0
    6.0422   -4.3150    0.0000 C   0  0  0  0  0  0  0  0  0  0  0  0
    6.1285   -5.1355    0.0000 N   0  0  0  0  0  0  0  0  0  0  0  0
    5.4610   -5.6204    0.0000 C   0  0  0  0  0  0  0  0  0  0  0  0
    4.7074   -5.2849    0.0000 C   0  0  0  0  0  0  0  0  0  0  0  0
    6.8821   -5.4711    0.0000 C   0  0  0  0  0  0  0  0  0  0  0  0
    7.5496   -4.9861    0.0000 O   0  0  0  0  0  0  0  0  0  0  0  0
    6.9684   -6.2915    0.0000 C   0  0  0  0  0  0  0  0  0  0  0  0
  1  2  1  0
  2  3  1  0
  3  4  2  0
  4  5  1  0
  5  6  1  0
  6  7  2  0
  7  8  1  0
  8  9  2  0
  9 10  1  0
  9 11  1  0
 11 12  2  0
  6 12  1  0
 11 13  1  0
 13 14  1  0
 14 15  2  0
 15 16  1  0
 16 17  1  0
 17 18  2  0
 18 19  1  0
 19 20  2  0
 20 21  1  0
 13 21  2  0
 16 21  1  0
  4 22  1  0
 22 23  2  0
 23 24  1  0
  3 24  1  0
 24 25  1  0
 25 26  1  0
 26 27  1  0
 27 28  1  0
 28 29  1  0
 29 30  1  0
 25 30  1  0
 28 31  1  0
 31 32  2  0
 31 33  1  0
M  END
>  <pIC50>  (301) 
6.08

>  <chembl_id>  (301) 
CHEMBL3822962

>  <canonical_smiles>  (301) 
CCc1c(Nc2ncc(Cl)c(n2)c3cnn4ccccc34)cnn1C5CCN(CC5)C(=O)C

$$$$
CHEMBL3822989
     RDKit          2D

 32 36  0  0  0  0  0  0  0  0999 V2000
   -1.8902   -8.7855    0.0000 C   0  0  0  0  0  0  0  0  0  0  0  0
   -1.9764   -7.9651    0.0000 C   0  0  0  0  0  0  0  0  0  0  0  0
   -2.7301   -7.6295    0.0000 O   0  0  0  0  0  0  0  0  0  0  0  0
   -1.3090   -7.4801    0.0000 N   0  0  0  0  0  0  0  0  0  0  0  0
   -1.3952   -6.6597    0.0000 C   0  0  0  0  0  0  0  0  0  0  0  0
   -0.7278   -6.1747    0.0000 C   0  0  0  0  0  0  0  0  0  0  0  0
    0.0259   -6.5103    0.0000 C   0  0  0  0  0  0  0  0  0  0  0  0
    0.1121   -7.3308    0.0000 C   0  0  0  0  0  0  0  0  0  0  0  0
   -0.5553   -7.8157    0.0000 C   0  0  0  0  0  0  0  0  0  0  0  0
    0.6933   -6.0254    0.0000 N   0  0  0  0  0  0  0  0  0  0  0  0
    0.6933   -5.2004    0.0000 C   0  0  0  0  0  0  0  0  0  0  0  0
    1.4780   -4.9454    0.0000 C   0  0  0  0  0  0  0  0  0  0  0  0
    1.7329   -4.1608    0.0000 N   0  0  0  0  0  0  0  0  0  0  0  0
    1.1809   -3.5477    0.0000 C   0  0  0  0  0  0  0  0  0  0  0  0
    0.3739   -3.7192    0.0000 N   0  0  0  0  0  0  0  0  0  0  0  0
   -0.1781   -3.1062    0.0000 C   0  0  0  0  0  0  0  0  0  0  0  0
    0.0768   -2.3215    0.0000 C   0  0  0  0  0  0  0  0  0  0  0  0
   -0.4752   -1.7084    0.0000 Cl  0  0  0  0  0  0  0  0  0  0  0  0
    0.8838   -2.1500    0.0000 C   0  0  0  0  0  0  0  0  0  0  0  0
    1.4358   -2.7631    0.0000 N   0  0  0  0  0  0  0  0  0  0  0  0
    1.1387   -1.3654    0.0000 C   0  0  0  0  0  0  0  0  0  0  0  0
    0.6538   -0.6979    0.0000 C   0  0  0  0  0  0  0  0  0  0  0  0
    1.1387   -0.0305    0.0000 N   0  0  0  0  0  0  0  0  0  0  0  0
    1.9233   -0.2854    0.0000 N   0  0  0  0  0  0  0  0  0  0  0  0
    2.6378    0.1271    0.0000 C   0  0  0  0  0  0  0  0  0  0  0  0
    3.3523   -0.2854    0.0000 C   0  0  0  0  0  0  0  0  0  0  0  0
    3.3523   -1.1104    0.0000 C   0  0  0  0  0  0  0  0  0  0  0  0
    2.6378   -1.5229    0.0000 C   0  0  0  0  0  0  0  0  0  0  0  0
    1.9233   -1.1104    0.0000 C   0  0  0  0  0  0  0  0  0  0  0  0
    1.9629   -5.6129    0.0000 C   0  0  0  0  0  0  0  0  0  0  0  0
    2.7879   -5.6129    0.0000 C   0  0  0  0  0  0  0  0  0  0  0  0
    1.4780   -6.2803    0.0000 N   0  0  0  0  0  0  0  0  0  0  0  0
  1  2  1  0
  2  3  2  0
  2  4  1  0
  4  5  1  0
  5  6  1  0
  6  7  1  0
  7  8  1  0
  8  9  1  0
  4  9  1  0
  7 10  1  0
 10 11  1  0
 11 12  2  0
 12 13  1  0
 13 14  1  0
 14 15  2  0
 15 16  1  0
 16 17  2  0
 17 18  1  0
 17 19  1  0
 19 20  2  0
 14 20  1  0
 19 21  1  0
 21 22  1  0
 22 23  2  0
 23 24  1  0
 24 25  1  0
 25 26  2  0
 26 27  1  0
 27 28  2  0
 28 29  1  0
 21 29  2  0
 24 29  1  0
 12 30  1  0
 30 31  1  0
 30 32  2  0
 10 32  1  0
M  END
>  <pIC50>  (302) 
7.20

>  <chembl_id>  (302) 
CHEMBL3822989

>  <canonical_smiles>  (302) 
CC(=O)N1CCC(CC1)n2cc(Nc3ncc(Cl)c(n3)c4cnn5ccccc45)c(C)n2

$$$$
CHEMBL3823007
     RDKit          2D

 29 33  0  0  0  0  0  0  0  0999 V2000
    2.4629   -2.5211    0.0000 C   0  0  0  0  0  0  0  0  0  0  0  0
    2.8754   -3.2356    0.0000 C   0  0  0  0  0  0  0  0  0  0  0  0
    3.6959   -3.3218    0.0000 N   0  0  0  0  0  0  0  0  0  0  0  0
    3.8674   -4.1288    0.0000 N   0  0  0  0  0  0  0  0  0  0  0  0
    3.1530   -4.5413    0.0000 C   0  0  0  0  0  0  0  0  0  0  0  0
    2.5399   -3.9893    0.0000 C   0  0  0  0  0  0  0  0  0  0  0  0
    1.7329   -4.1608    0.0000 N   0  0  0  0  0  0  0  0  0  0  0  0
    1.1809   -3.5477    0.0000 C   0  0  0  0  0  0  0  0  0  0  0  0
    0.3739   -3.7192    0.0000 N   0  0  0  0  0  0  0  0  0  0  0  0
   -0.1781   -3.1062    0.0000 C   0  0  0  0  0  0  0  0  0  0  0  0
    0.0768   -2.3215    0.0000 C   0  0  0  0  0  0  0  0  0  0  0  0
   -0.4752   -1.7084    0.0000 Cl  0  0  0  0  0  0  0  0  0  0  0  0
    0.8838   -2.1500    0.0000 C   0  0  0  0  0  0  0  0  0  0  0  0
    1.4358   -2.7631    0.0000 N   0  0  0  0  0  0  0  0  0  0  0  0
    1.1387   -1.3654    0.0000 C   0  0  0  0  0  0  0  0  0  0  0  0
    0.6538   -0.6979    0.0000 C   0  0  0  0  0  0  0  0  0  0  0  0
    1.1387   -0.0305    0.0000 N   0  0  0  0  0  0  0  0  0  0  0  0
    1.9233   -0.2854    0.0000 C   0  0  0  0  0  0  0  0  0  0  0  0
    2.6378    0.1271    0.0000 C   0  0  0  0  0  0  0  0  0  0  0  0
    3.3523   -0.2854    0.0000 C   0  0  0  0  0  0  0  0  0  0  0  0
    3.3523   -1.1104    0.0000 C   0  0  0  0  0  0  0  0  0  0  0  0
    2.6378   -1.5229    0.0000 C   0  0  0  0  0  0  0  0  0  0  0  0
    1.9233   -1.1104    0.0000 N   0  0  0  0  0  0  0  0  0  0  0  0
    4.6211   -4.4644    0.0000 C   0  0  0  0  0  0  0  0  0  0  0  0
    5.2886   -3.9795    0.0000 C   0  0  0  0  0  0  0  0  0  0  0  0
    6.0422   -4.3150    0.0000 C   0  0  0  0  0  0  0  0  0  0  0  0
    6.1285   -5.1355    0.0000 N   0  0  0  0  0  0  0  0  0  0  0  0
    5.4610   -5.6204    0.0000 C   0  0  0  0  0  0  0  0  0  0  0  0
    4.7074   -5.2849    0.0000 C   0  0  0  0  0  0  0  0  0  0  0  0
  1  2  1  0
  2  3  2  0
  3  4  1  0
  4  5  1  0
  5  6  2  0
  2  6  1  0
  6  7  1  0
  7  8  1  0
  8  9  2  0
  9 10  1  0
 10 11  2  0
 11 12  1  0
 11 13  1  0
 13 14  2  0
  8 14  1  0
 13 15  1  0
 15 16  2  0
 16 17  1  0
 17 18  2  0
 18 19  1  0
 19 20  2  0
 20 21  1  0
 21 22  2  0
 22 23  1  0
 15 23  1  0
 18 23  1  0
  4 24  1  0
 24 25  1  0
 25 26  1  0
 26 27  1  0
 27 28  1  0
 28 29  1  0
 24 29  1  0
M  END
>  <pIC50>  (303) 
6.41

>  <chembl_id>  (303) 
CHEMBL3823007

>  <canonical_smiles>  (303) 
Cc1nn(cc1Nc2ncc(Cl)c(n2)c3cnc4ccccn34)C5CCNCC5

$$$$
CHEMBL3823030
     RDKit          2D

 35 39  0  0  1  0  0  0  0  0999 V2000
    3.5596  -10.3749    0.0000 C   0  0  0  0  0  0  0  0  0  0  0  0
    3.3047   -9.5903    0.0000 C   0  0  0  0  0  0  0  0  0  0  0  0
    3.8567   -8.9772    0.0000 O   0  0  0  0  0  0  0  0  0  0  0  0
    2.4977   -9.4188    0.0000 C   0  0  0  0  0  0  0  0  0  0  0  0
    1.9457  -10.0319    0.0000 O   0  0  0  0  0  0  0  0  0  0  0  0
    2.2428   -8.6342    0.0000 N   0  0  0  0  0  0  0  0  0  0  0  0
    1.4358   -8.4627    0.0000 C   0  0  0  0  0  0  0  0  0  0  0  0
    1.1809   -7.6780    0.0000 C   0  0  0  0  0  0  0  0  0  0  0  0
    1.7329   -7.0649    0.0000 C   0  0  0  0  0  0  0  0  0  0  0  0
    2.5399   -7.2365    0.0000 C   0  0  0  0  0  0  0  0  0  0  0  0
    2.7948   -8.0211    0.0000 C   0  0  0  0  0  0  0  0  0  0  0  0
    1.4780   -6.2803    0.0000 N   0  0  0  0  0  0  0  0  0  0  0  0
    0.6933   -6.0254    0.0000 N   0  0  0  0  0  0  0  0  0  0  0  0
    0.6933   -5.2004    0.0000 C   0  0  0  0  0  0  0  0  0  0  0  0
    0.0259   -4.7155    0.0000 C   0  0  0  0  0  0  0  0  0  0  0  0
    1.4780   -4.9454    0.0000 C   0  0  0  0  0  0  0  0  0  0  0  0
    1.7329   -4.1608    0.0000 N   0  0  0  0  0  0  0  0  0  0  0  0
    1.1809   -3.5477    0.0000 C   0  0  0  0  0  0  0  0  0  0  0  0
    0.3739   -3.7192    0.0000 N   0  0  0  0  0  0  0  0  0  0  0  0
   -0.1781   -3.1062    0.0000 C   0  0  0  0  0  0  0  0  0  0  0  0
    0.0768   -2.3215    0.0000 C   0  0  0  0  0  0  0  0  0  0  0  0
   -0.4752   -1.7084    0.0000 Cl  0  0  0  0  0  0  0  0  0  0  0  0
    0.8838   -2.1500    0.0000 C   0  0  0  0  0  0  0  0  0  0  0  0
    1.4358   -2.7631    0.0000 N   0  0  0  0  0  0  0  0  0  0  0  0
    1.1387   -1.3654    0.0000 C   0  0  0  0  0  0  0  0  0  0  0  0
    0.6538   -0.6979    0.0000 C   0  0  0  0  0  0  0  0  0  0  0  0
    1.1387   -0.0305    0.0000 N   0  0  0  0  0  0  0  0  0  0  0  0
    1.9233   -0.2854    0.0000 N   0  0  0  0  0  0  0  0  0  0  0  0
    2.6378    0.1271    0.0000 C   0  0  0  0  0  0  0  0  0  0  0  0
    3.3523   -0.2854    0.0000 C   0  0  0  0  0  0  0  0  0  0  0  0
    3.3523   -1.1104    0.0000 C   0  0  0  0  0  0  0  0  0  0  0  0
    2.6378   -1.5229    0.0000 C   0  0  0  0  0  0  0  0  0  0  0  0
    1.9233   -1.1104    0.0000 C   0  0  0  0  0  0  0  0  0  0  0  0
    1.9629   -5.6129    0.0000 C   0  0  0  0  0  0  0  0  0  0  0  0
    2.7879   -5.6129    0.0000 C   0  0  0  0  0  0  0  0  0  0  0  0
  2  1  1  6
  2  3  1  0
  2  4  1  0
  4  5  2  0
  4  6  1  0
  6  7  1  0
  7  8  1  0
  8  9  1  0
  9 10  1  0
 10 11  1  0
  6 11  1  0
  9 12  1  0
 12 13  1  0
 13 14  2  0
 14 15  1  0
 14 16  1  0
 16 17  1  0
 17 18  1  0
 18 19  2  0
 19 20  1  0
 20 21  2  0
 21 22  1  0
 21 23  1  0
 23 24  2  0
 18 24  1  0
 23 25  1  0
 25 26  1  0
 26 27  2  0
 27 28  1  0
 28 29  1  0
 29 30  2  0
 30 31  1  0
 31 32  2  0
 32 33  1  0
 25 33  2  0
 28 33  1  0
 16 34  2  0
 12 34  1  0
 34 35  1  0
M  END
>  <pIC50>  (304) 
6.15

>  <chembl_id>  (304) 
CHEMBL3823030

>  <canonical_smiles>  (304) 
C[C@@H](O)C(=O)N1CCC(CC1)n2nc(C)c(Nc3ncc(Cl)c(n3)c4cnn5ccccc45)c2C

$$$$
CHEMBL3823278
     RDKit          2D

 32 36  0  0  0  0  0  0  0  0999 V2000
   -1.8902   -8.7855    0.0000 C   0  0  0  0  0  0  0  0  0  0  0  0
   -1.9764   -7.9651    0.0000 C   0  0  0  0  0  0  0  0  0  0  0  0
   -2.7301   -7.6295    0.0000 O   0  0  0  0  0  0  0  0  0  0  0  0
   -1.3090   -7.4801    0.0000 N   0  0  0  0  0  0  0  0  0  0  0  0
   -1.3952   -6.6597    0.0000 C   0  0  0  0  0  0  0  0  0  0  0  0
   -0.7278   -6.1747    0.0000 C   0  0  0  0  0  0  0  0  0  0  0  0
    0.0259   -6.5103    0.0000 C   0  0  0  0  0  0  0  0  0  0  0  0
    0.1121   -7.3308    0.0000 C   0  0  0  0  0  0  0  0  0  0  0  0
   -0.5553   -7.8157    0.0000 C   0  0  0  0  0  0  0  0  0  0  0  0
    0.6933   -6.0254    0.0000 N   0  0  0  0  0  0  0  0  0  0  0  0
    0.6933   -5.2004    0.0000 C   0  0  0  0  0  0  0  0  0  0  0  0
    1.4780   -4.9454    0.0000 C   0  0  0  0  0  0  0  0  0  0  0  0
    1.7329   -4.1608    0.0000 N   0  0  0  0  0  0  0  0  0  0  0  0
    1.1809   -3.5477    0.0000 C   0  0  0  0  0  0  0  0  0  0  0  0
    0.3739   -3.7192    0.0000 N   0  0  0  0  0  0  0  0  0  0  0  0
   -0.1781   -3.1062    0.0000 C   0  0  0  0  0  0  0  0  0  0  0  0
    0.0768   -2.3215    0.0000 C   0  0  0  0  0  0  0  0  0  0  0  0
   -0.4752   -1.7084    0.0000 Cl  0  0  0  0  0  0  0  0  0  0  0  0
    0.8838   -2.1500    0.0000 C   0  0  0  0  0  0  0  0  0  0  0  0
    1.4358   -2.7631    0.0000 N   0  0  0  0  0  0  0  0  0  0  0  0
    1.1387   -1.3654    0.0000 C   0  0  0  0  0  0  0  0  0  0  0  0
    0.6538   -0.6979    0.0000 C   0  0  0  0  0  0  0  0  0  0  0  0
    1.1387   -0.0305    0.0000 N   0  0  0  0  0  0  0  0  0  0  0  0
    1.9233   -0.2854    0.0000 C   0  0  0  0  0  0  0  0  0  0  0  0
    2.6378    0.1271    0.0000 C   0  0  0  0  0  0  0  0  0  0  0  0
    3.3523   -0.2854    0.0000 C   0  0  0  0  0  0  0  0  0  0  0  0
    3.3523   -1.1104    0.0000 C   0  0  0  0  0  0  0  0  0  0  0  0
    2.6378   -1.5229    0.0000 C   0  0  0  0  0  0  0  0  0  0  0  0
    1.9233   -1.1104    0.0000 N   0  0  0  0  0  0  0  0  0  0  0  0
    1.9629   -5.6129    0.0000 C   0  0  0  0  0  0  0  0  0  0  0  0
    2.7879   -5.6129    0.0000 C   0  0  0  0  0  0  0  0  0  0  0  0
    1.4780   -6.2803    0.0000 N   0  0  0  0  0  0  0  0  0  0  0  0
  1  2  1  0
  2  3  2  0
  2  4  1  0
  4  5  1  0
  5  6  1  0
  6  7  1  0
  7  8  1  0
  8  9  1  0
  4  9  1  0
  7 10  1  0
 10 11  1  0
 11 12  2  0
 12 13  1  0
 13 14  1  0
 14 15  2  0
 15 16  1  0
 16 17  2  0
 17 18  1  0
 17 19  1  0
 19 20  2  0
 14 20  1  0
 19 21  1  0
 21 22  2  0
 22 23  1  0
 23 24  2  0
 24 25  1  0
 25 26  2  0
 26 27  1  0
 27 28  2  0
 28 29  1  0
 21 29  1  0
 24 29  1  0
 12 30  1  0
 30 31  1  0
 30 32  2  0
 10 32  1  0
M  END
>  <pIC50>  (305) 
6.87

>  <chembl_id>  (305) 
CHEMBL3823278

>  <canonical_smiles>  (305) 
CC(=O)N1CCC(CC1)n2cc(Nc3ncc(Cl)c(n3)c4cnc5ccccn45)c(C)n2

$$$$
CHEMBL3823297
     RDKit          2D

 34 38  0  0  0  0  0  0  0  0999 V2000
    3.3890   -6.0001    0.0000 C   0  0  0  0  0  0  0  0  0  0  0  0
    2.8370   -5.3870    0.0000 O   0  0  0  0  0  0  0  0  0  0  0  0
    3.0919   -4.6024    0.0000 C   0  0  0  0  0  0  0  0  0  0  0  0
    3.8989   -4.4309    0.0000 C   0  0  0  0  0  0  0  0  0  0  0  0
    4.1538   -3.6462    0.0000 C   0  0  0  0  0  0  0  0  0  0  0  0
    3.6018   -3.0331    0.0000 C   0  0  0  0  0  0  0  0  0  0  0  0
    2.7948   -3.2047    0.0000 C   0  0  0  0  0  0  0  0  0  0  0  0
    2.5399   -3.9893    0.0000 C   0  0  0  0  0  0  0  0  0  0  0  0
    1.7329   -4.1608    0.0000 N   0  0  0  0  0  0  0  0  0  0  0  0
    1.1809   -3.5477    0.0000 C   0  0  0  0  0  0  0  0  0  0  0  0
    0.3739   -3.7192    0.0000 N   0  0  0  0  0  0  0  0  0  0  0  0
   -0.1781   -3.1062    0.0000 C   0  0  0  0  0  0  0  0  0  0  0  0
    0.0768   -2.3215    0.0000 C   0  0  0  0  0  0  0  0  0  0  0  0
   -0.4752   -1.7084    0.0000 Cl  0  0  0  0  0  0  0  0  0  0  0  0
    0.8838   -2.1500    0.0000 C   0  0  0  0  0  0  0  0  0  0  0  0
    1.4358   -2.7631    0.0000 N   0  0  0  0  0  0  0  0  0  0  0  0
    1.1387   -1.3654    0.0000 C   0  0  0  0  0  0  0  0  0  0  0  0
    0.6538   -0.6979    0.0000 C   0  0  0  0  0  0  0  0  0  0  0  0
    1.1387   -0.0305    0.0000 N   0  0  0  0  0  0  0  0  0  0  0  0
    1.9233   -0.2854    0.0000 N   0  0  0  0  0  0  0  0  0  0  0  0
    2.6378    0.1271    0.0000 C   0  0  0  0  0  0  0  0  0  0  0  0
    3.3523   -0.2854    0.0000 C   0  0  0  0  0  0  0  0  0  0  0  0
    3.3523   -1.1104    0.0000 C   0  0  0  0  0  0  0  0  0  0  0  0
    2.6378   -1.5229    0.0000 C   0  0  0  0  0  0  0  0  0  0  0  0
    1.9233   -1.1104    0.0000 C   0  0  0  0  0  0  0  0  0  0  0  0
    4.9608   -3.4747    0.0000 N   0  0  0  0  0  0  0  0  0  0  0  0
    5.2157   -2.6901    0.0000 C   0  0  0  0  0  0  0  0  0  0  0  0
    6.0227   -2.5186    0.0000 C   0  0  0  0  0  0  0  0  0  0  0  0
    6.5747   -3.1317    0.0000 N   0  0  0  0  0  0  0  0  0  0  0  0
    6.3198   -3.9163    0.0000 C   0  0  0  0  0  0  0  0  0  0  0  0
    5.5128   -4.0878    0.0000 C   0  0  0  0  0  0  0  0  0  0  0  0
    7.3817   -2.9601    0.0000 C   0  0  0  0  0  0  0  0  0  0  0  0
    7.6366   -2.1755    0.0000 O   0  0  0  0  0  0  0  0  0  0  0  0
    7.9337   -3.5732    0.0000 C   0  0  0  0  0  0  0  0  0  0  0  0
  1  2  1  0
  2  3  1  0
  3  4  2  0
  4  5  1  0
  5  6  2  0
  6  7  1  0
  7  8  2  0
  3  8  1  0
  8  9  1  0
  9 10  1  0
 10 11  2  0
 11 12  1  0
 12 13  2  0
 13 14  1  0
 13 15  1  0
 15 16  2  0
 10 16  1  0
 15 17  1  0
 17 18  1  0
 18 19  2  0
 19 20  1  0
 20 21  1  0
 21 22  2  0
 22 23  1  0
 23 24  2  0
 24 25  1  0
 17 25  2  0
 20 25  1  0
  5 26  1  0
 26 27  1  0
 27 28  1  0
 28 29  1  0
 29 30  1  0
 30 31  1  0
 26 31  1  0
 29 32  1  0
 32 33  2  0
 32 34  1  0
M  END
>  <pIC50>  (306) 
5.99

>  <chembl_id>  (306) 
CHEMBL3823297

>  <canonical_smiles>  (306) 
COc1cc(ccc1Nc2ncc(Cl)c(n2)c3cnn4ccccc34)N5CCN(CC5)C(=O)C

$$$$
CHEMBL3823301
     RDKit          2D

 32 36  0  0  0  0  0  0  0  0999 V2000
    3.3047   -9.5903    0.0000 C   0  0  0  0  0  0  0  0  0  0  0  0
    2.4977   -9.4188    0.0000 C   0  0  0  0  0  0  0  0  0  0  0  0
    1.9457  -10.0319    0.0000 O   0  0  0  0  0  0  0  0  0  0  0  0
    2.2428   -8.6342    0.0000 N   0  0  0  0  0  0  0  0  0  0  0  0
    1.4358   -8.4627    0.0000 C   0  0  0  0  0  0  0  0  0  0  0  0
    1.1809   -7.6780    0.0000 C   0  0  0  0  0  0  0  0  0  0  0  0
    1.7329   -7.0649    0.0000 C   0  0  0  0  0  0  0  0  0  0  0  0
    2.5399   -7.2365    0.0000 C   0  0  0  0  0  0  0  0  0  0  0  0
    2.7948   -8.0211    0.0000 C   0  0  0  0  0  0  0  0  0  0  0  0
    1.4780   -6.2803    0.0000 N   0  0  0  0  0  0  0  0  0  0  0  0
    0.6933   -6.0254    0.0000 N   0  0  0  0  0  0  0  0  0  0  0  0
    0.6933   -5.2004    0.0000 C   0  0  0  0  0  0  0  0  0  0  0  0
    1.4780   -4.9454    0.0000 C   0  0  0  0  0  0  0  0  0  0  0  0
    1.7329   -4.1608    0.0000 N   0  0  0  0  0  0  0  0  0  0  0  0
    1.1809   -3.5477    0.0000 C   0  0  0  0  0  0  0  0  0  0  0  0
    0.3739   -3.7192    0.0000 N   0  0  0  0  0  0  0  0  0  0  0  0
   -0.1781   -3.1062    0.0000 C   0  0  0  0  0  0  0  0  0  0  0  0
    0.0768   -2.3215    0.0000 C   0  0  0  0  0  0  0  0  0  0  0  0
   -0.4752   -1.7084    0.0000 Cl  0  0  0  0  0  0  0  0  0  0  0  0
    0.8838   -2.1500    0.0000 C   0  0  0  0  0  0  0  0  0  0  0  0
    1.4358   -2.7631    0.0000 N   0  0  0  0  0  0  0  0  0  0  0  0
    1.1387   -1.3654    0.0000 C   0  0  0  0  0  0  0  0  0  0  0  0
    0.6538   -0.6979    0.0000 C   0  0  0  0  0  0  0  0  0  0  0  0
    1.1387   -0.0305    0.0000 N   0  0  0  0  0  0  0  0  0  0  0  0
    1.9233   -0.2854    0.0000 N   0  0  0  0  0  0  0  0  0  0  0  0
    2.6378    0.1271    0.0000 C   0  0  0  0  0  0  0  0  0  0  0  0
    3.3523   -0.2854    0.0000 C   0  0  0  0  0  0  0  0  0  0  0  0
    3.3523   -1.1104    0.0000 C   0  0  0  0  0  0  0  0  0  0  0  0
    2.6378   -1.5229    0.0000 C   0  0  0  0  0  0  0  0  0  0  0  0
    1.9233   -1.1104    0.0000 C   0  0  0  0  0  0  0  0  0  0  0  0
    1.9629   -5.6129    0.0000 C   0  0  0  0  0  0  0  0  0  0  0  0
    2.7879   -5.6129    0.0000 C   0  0  0  0  0  0  0  0  0  0  0  0
  1  2  1  0
  2  3  2  0
  2  4  1  0
  4  5  1  0
  5  6  1  0
  6  7  1  0
  7  8  1  0
  8  9  1  0
  4  9  1  0
  7 10  1  0
 10 11  1  0
 11 12  2  0
 12 13  1  0
 13 14  1  0
 14 15  1  0
 15 16  2  0
 16 17  1  0
 17 18  2  0
 18 19  1  0
 18 20  1  0
 20 21  2  0
 15 21  1  0
 20 22  1  0
 22 23  1  0
 23 24  2  0
 24 25  1  0
 25 26  1  0
 26 27  2  0
 27 28  1  0
 28 29  2  0
 29 30  1  0
 22 30  2  0
 25 30  1  0
 13 31  2  0
 10 31  1  0
 31 32  1  0
M  END
>  <pIC50>  (307) 
6.60

>  <chembl_id>  (307) 
CHEMBL3823301

>  <canonical_smiles>  (307) 
CC(=O)N1CCC(CC1)n2ncc(Nc3ncc(Cl)c(n3)c4cnn5ccccc45)c2C

$$$$
CHEMBL3823522
     RDKit          2D

 33 37  0  0  0  0  0  0  0  0999 V2000
    3.7342   -5.8467    0.0000 C   0  0  0  0  0  0  0  0  0  0  0  0
    3.0667   -5.3618    0.0000 O   0  0  0  0  0  0  0  0  0  0  0  0
    3.1530   -4.5413    0.0000 C   0  0  0  0  0  0  0  0  0  0  0  0
    3.8674   -4.1288    0.0000 N   0  0  0  0  0  0  0  0  0  0  0  0
    3.6959   -3.3218    0.0000 N   0  0  0  0  0  0  0  0  0  0  0  0
    2.8754   -3.2356    0.0000 C   0  0  0  0  0  0  0  0  0  0  0  0
    2.5399   -3.9893    0.0000 C   0  0  0  0  0  0  0  0  0  0  0  0
    1.7329   -4.1608    0.0000 N   0  0  0  0  0  0  0  0  0  0  0  0
    1.1809   -3.5477    0.0000 C   0  0  0  0  0  0  0  0  0  0  0  0
    0.3739   -3.7192    0.0000 N   0  0  0  0  0  0  0  0  0  0  0  0
   -0.1781   -3.1062    0.0000 C   0  0  0  0  0  0  0  0  0  0  0  0
    0.0768   -2.3215    0.0000 C   0  0  0  0  0  0  0  0  0  0  0  0
   -0.4752   -1.7084    0.0000 Cl  0  0  0  0  0  0  0  0  0  0  0  0
    0.8838   -2.1500    0.0000 C   0  0  0  0  0  0  0  0  0  0  0  0
    1.4358   -2.7631    0.0000 N   0  0  0  0  0  0  0  0  0  0  0  0
    1.1387   -1.3654    0.0000 C   0  0  0  0  0  0  0  0  0  0  0  0
    0.6538   -0.6979    0.0000 C   0  0  0  0  0  0  0  0  0  0  0  0
    1.1387   -0.0305    0.0000 N   0  0  0  0  0  0  0  0  0  0  0  0
    1.9233   -0.2854    0.0000 N   0  0  0  0  0  0  0  0  0  0  0  0
    2.6378    0.1271    0.0000 C   0  0  0  0  0  0  0  0  0  0  0  0
    3.3523   -0.2854    0.0000 C   0  0  0  0  0  0  0  0  0  0  0  0
    3.3523   -1.1104    0.0000 C   0  0  0  0  0  0  0  0  0  0  0  0
    2.6378   -1.5229    0.0000 C   0  0  0  0  0  0  0  0  0  0  0  0
    1.9233   -1.1104    0.0000 C   0  0  0  0  0  0  0  0  0  0  0  0
    4.2480   -2.7088    0.0000 C   0  0  0  0  0  0  0  0  0  0  0  0
    3.9930   -1.9241    0.0000 C   0  0  0  0  0  0  0  0  0  0  0  0
    4.5450   -1.3110    0.0000 C   0  0  0  0  0  0  0  0  0  0  0  0
    5.3520   -1.4826    0.0000 N   0  0  0  0  0  0  0  0  0  0  0  0
    5.6070   -2.2672    0.0000 C   0  0  0  0  0  0  0  0  0  0  0  0
    5.0549   -2.8803    0.0000 C   0  0  0  0  0  0  0  0  0  0  0  0
    5.9040   -0.8695    0.0000 C   0  0  0  0  0  0  0  0  0  0  0  0
    5.6491   -0.0848    0.0000 O   0  0  0  0  0  0  0  0  0  0  0  0
    6.7110   -1.0410    0.0000 C   0  0  0  0  0  0  0  0  0  0  0  0
  1  2  1  0
  2  3  1  0
  3  4  2  0
  4  5  1  0
  5  6  1  0
  6  7  2  0
  3  7  1  0
  7  8  1  0
  8  9  1  0
  9 10  2  0
 10 11  1  0
 11 12  2  0
 12 13  1  0
 12 14  1  0
 14 15  2  0
  9 15  1  0
 14 16  1  0
 16 17  1  0
 17 18  2  0
 18 19  1  0
 19 20  1  0
 20 21  2  0
 21 22  1  0
 22 23  2  0
 23 24  1  0
 16 24  2  0
 19 24  1  0
  5 25  1  0
 25 26  1  0
 26 27  1  0
 27 28  1  0
 28 29  1  0
 29 30  1  0
 25 30  1  0
 28 31  1  0
 31 32  2  0
 31 33  1  0
M  END
>  <pIC50>  (308) 
6.44

>  <chembl_id>  (308) 
CHEMBL3823522

>  <canonical_smiles>  (308) 
COc1nn(cc1Nc2ncc(Cl)c(n2)c3cnn4ccccc34)C5CCN(CC5)C(=O)C

$$$$
CHEMBL3823659
     RDKit          2D

 31 35  0  0  0  0  0  0  0  0999 V2000
   -1.8902   -8.7855    0.0000 C   0  0  0  0  0  0  0  0  0  0  0  0
   -1.9764   -7.9651    0.0000 C   0  0  0  0  0  0  0  0  0  0  0  0
   -2.7301   -7.6295    0.0000 O   0  0  0  0  0  0  0  0  0  0  0  0
   -1.3090   -7.4801    0.0000 N   0  0  0  0  0  0  0  0  0  0  0  0
   -1.3952   -6.6597    0.0000 C   0  0  0  0  0  0  0  0  0  0  0  0
   -0.7278   -6.1747    0.0000 C   0  0  0  0  0  0  0  0  0  0  0  0
    0.0259   -6.5103    0.0000 C   0  0  0  0  0  0  0  0  0  0  0  0
    0.1121   -7.3308    0.0000 C   0  0  0  0  0  0  0  0  0  0  0  0
   -0.5553   -7.8157    0.0000 C   0  0  0  0  0  0  0  0  0  0  0  0
    0.6933   -6.0254    0.0000 N   0  0  0  0  0  0  0  0  0  0  0  0
    0.6933   -5.2004    0.0000 C   0  0  0  0  0  0  0  0  0  0  0  0
    1.4780   -4.9454    0.0000 C   0  0  0  0  0  0  0  0  0  0  0  0
    1.7329   -4.1608    0.0000 N   0  0  0  0  0  0  0  0  0  0  0  0
    1.1809   -3.5477    0.0000 C   0  0  0  0  0  0  0  0  0  0  0  0
    0.3739   -3.7192    0.0000 N   0  0  0  0  0  0  0  0  0  0  0  0
   -0.1781   -3.1062    0.0000 C   0  0  0  0  0  0  0  0  0  0  0  0
    0.0768   -2.3215    0.0000 C   0  0  0  0  0  0  0  0  0  0  0  0
   -0.4752   -1.7084    0.0000 Cl  0  0  0  0  0  0  0  0  0  0  0  0
    0.8838   -2.1500    0.0000 C   0  0  0  0  0  0  0  0  0  0  0  0
    1.4358   -2.7631    0.0000 N   0  0  0  0  0  0  0  0  0  0  0  0
    1.1387   -1.3654    0.0000 C   0  0  0  0  0  0  0  0  0  0  0  0
    0.6538   -0.6979    0.0000 C   0  0  0  0  0  0  0  0  0  0  0  0
    1.1387   -0.0305    0.0000 N   0  0  0  0  0  0  0  0  0  0  0  0
    1.9233   -0.2854    0.0000 C   0  0  0  0  0  0  0  0  0  0  0  0
    2.6378    0.1271    0.0000 C   0  0  0  0  0  0  0  0  0  0  0  0
    3.3523   -0.2854    0.0000 C   0  0  0  0  0  0  0  0  0  0  0  0
    3.3523   -1.1104    0.0000 C   0  0  0  0  0  0  0  0  0  0  0  0
    2.6378   -1.5229    0.0000 C   0  0  0  0  0  0  0  0  0  0  0  0
    1.9233   -1.1104    0.0000 N   0  0  0  0  0  0  0  0  0  0  0  0
    1.9629   -5.6129    0.0000 C   0  0  0  0  0  0  0  0  0  0  0  0
    1.4780   -6.2803    0.0000 N   0  0  0  0  0  0  0  0  0  0  0  0
  1  2  1  0
  2  3  2  0
  2  4  1  0
  4  5  1  0
  5  6  1  0
  6  7  1  0
  7  8  1  0
  8  9  1  0
  4  9  1  0
  7 10  1  0
 10 11  1  0
 11 12  2  0
 12 13  1  0
 13 14  1  0
 14 15  2  0
 15 16  1  0
 16 17  2  0
 17 18  1  0
 17 19  1  0
 19 20  2  0
 14 20  1  0
 19 21  1  0
 21 22  2  0
 22 23  1  0
 23 24  2  0
 24 25  1  0
 25 26  2  0
 26 27  1  0
 27 28  2  0
 28 29  1  0
 21 29  1  0
 24 29  1  0
 12 30  1  0
 30 31  2  0
 10 31  1  0
M  END
>  <pIC50>  (309) 
7.60

>  <chembl_id>  (309) 
CHEMBL3823659

>  <canonical_smiles>  (309) 
CC(=O)N1CCC(CC1)n2cc(Nc3ncc(Cl)c(n3)c4cnc5ccccn45)cn2

$$$$
CHEMBL3823914
     RDKit          2D

 33 37  0  0  0  0  0  0  0  0999 V2000
    3.3047   -9.5903    0.0000 C   0  0  0  0  0  0  0  0  0  0  0  0
    2.4977   -9.4188    0.0000 C   0  0  0  0  0  0  0  0  0  0  0  0
    1.9457  -10.0319    0.0000 O   0  0  0  0  0  0  0  0  0  0  0  0
    2.2428   -8.6342    0.0000 N   0  0  0  0  0  0  0  0  0  0  0  0
    1.4358   -8.4627    0.0000 C   0  0  0  0  0  0  0  0  0  0  0  0
    1.1809   -7.6780    0.0000 C   0  0  0  0  0  0  0  0  0  0  0  0
    1.7329   -7.0649    0.0000 C   0  0  0  0  0  0  0  0  0  0  0  0
    2.5399   -7.2365    0.0000 C   0  0  0  0  0  0  0  0  0  0  0  0
    2.7948   -8.0211    0.0000 C   0  0  0  0  0  0  0  0  0  0  0  0
    1.4780   -6.2803    0.0000 N   0  0  0  0  0  0  0  0  0  0  0  0
    0.6933   -6.0254    0.0000 N   0  0  0  0  0  0  0  0  0  0  0  0
    0.6933   -5.2004    0.0000 C   0  0  0  0  0  0  0  0  0  0  0  0
    0.0259   -4.7155    0.0000 C   0  0  0  0  0  0  0  0  0  0  0  0
    1.4780   -4.9454    0.0000 C   0  0  0  0  0  0  0  0  0  0  0  0
    1.7329   -4.1608    0.0000 N   0  0  0  0  0  0  0  0  0  0  0  0
    1.1809   -3.5477    0.0000 C   0  0  0  0  0  0  0  0  0  0  0  0
    0.3739   -3.7192    0.0000 N   0  0  0  0  0  0  0  0  0  0  0  0
   -0.1781   -3.1062    0.0000 C   0  0  0  0  0  0  0  0  0  0  0  0
    0.0768   -2.3215    0.0000 C   0  0  0  0  0  0  0  0  0  0  0  0
   -0.4752   -1.7084    0.0000 Cl  0  0  0  0  0  0  0  0  0  0  0  0
    0.8838   -2.1500    0.0000 C   0  0  0  0  0  0  0  0  0  0  0  0
    1.4358   -2.7631    0.0000 N   0  0  0  0  0  0  0  0  0  0  0  0
    1.1387   -1.3654    0.0000 C   0  0  0  0  0  0  0  0  0  0  0  0
    0.6538   -0.6979    0.0000 C   0  0  0  0  0  0  0  0  0  0  0  0
    1.1387   -0.0305    0.0000 N   0  0  0  0  0  0  0  0  0  0  0  0
    1.9233   -0.2854    0.0000 N   0  0  0  0  0  0  0  0  0  0  0  0
    2.6378    0.1271    0.0000 C   0  0  0  0  0  0  0  0  0  0  0  0
    3.3523   -0.2854    0.0000 C   0  0  0  0  0  0  0  0  0  0  0  0
    3.3523   -1.1104    0.0000 C   0  0  0  0  0  0  0  0  0  0  0  0
    2.6378   -1.5229    0.0000 C   0  0  0  0  0  0  0  0  0  0  0  0
    1.9233   -1.1104    0.0000 C   0  0  0  0  0  0  0  0  0  0  0  0
    1.9629   -5.6129    0.0000 C   0  0  0  0  0  0  0  0  0  0  0  0
    2.7879   -5.6129    0.0000 C   0  0  0  0  0  0  0  0  0  0  0  0
  1  2  1  0
  2  3  2  0
  2  4  1  0
  4  5  1  0
  5  6  1  0
  6  7  1  0
  7  8  1  0
  8  9  1  0
  4  9  1  0
  7 10  1  0
 10 11  1  0
 11 12  2  0
 12 13  1  0
 12 14  1  0
 14 15  1  0
 15 16  1  0
 16 17  2  0
 17 18  1  0
 18 19  2  0
 19 20  1  0
 19 21  1  0
 21 22  2  0
 16 22  1  0
 21 23  1  0
 23 24  1  0
 24 25  2  0
 25 26  1  0
 26 27  1  0
 27 28  2  0
 28 29  1  0
 29 30  2  0
 30 31  1  0
 23 31  2  0
 26 31  1  0
 14 32  2  0
 10 32  1  0
 32 33  1  0
M  END
>  <pIC50>  (310) 
5.86

>  <chembl_id>  (310) 
CHEMBL3823914

>  <canonical_smiles>  (310) 
CC(=O)N1CCC(CC1)n2nc(C)c(Nc3ncc(Cl)c(n3)c4cnn5ccccc45)c2C

$$$$
CHEMBL3823929
     RDKit          2D

 33 37  0  0  0  0  0  0  0  0999 V2000
    3.3047   -9.5903    0.0000 C   0  0  0  0  0  0  0  0  0  0  0  0
    2.4977   -9.4188    0.0000 C   0  0  0  0  0  0  0  0  0  0  0  0
    1.9457  -10.0319    0.0000 O   0  0  0  0  0  0  0  0  0  0  0  0
    2.2428   -8.6342    0.0000 N   0  0  0  0  0  0  0  0  0  0  0  0
    1.4358   -8.4627    0.0000 C   0  0  0  0  0  0  0  0  0  0  0  0
    1.1809   -7.6780    0.0000 C   0  0  0  0  0  0  0  0  0  0  0  0
    1.7329   -7.0649    0.0000 C   0  0  0  0  0  0  0  0  0  0  0  0
    2.5399   -7.2365    0.0000 C   0  0  0  0  0  0  0  0  0  0  0  0
    2.7948   -8.0211    0.0000 C   0  0  0  0  0  0  0  0  0  0  0  0
    1.4780   -6.2803    0.0000 N   0  0  0  0  0  0  0  0  0  0  0  0
    0.6933   -6.0254    0.0000 N   0  0  0  0  0  0  0  0  0  0  0  0
    0.6933   -5.2004    0.0000 C   0  0  0  0  0  0  0  0  0  0  0  0
    0.0259   -4.7155    0.0000 C   0  0  0  0  0  0  0  0  0  0  0  0
    1.4780   -4.9454    0.0000 C   0  0  0  0  0  0  0  0  0  0  0  0
    1.7329   -4.1608    0.0000 N   0  0  0  0  0  0  0  0  0  0  0  0
    1.1809   -3.5477    0.0000 C   0  0  0  0  0  0  0  0  0  0  0  0
    0.3739   -3.7192    0.0000 N   0  0  0  0  0  0  0  0  0  0  0  0
   -0.1781   -3.1062    0.0000 C   0  0  0  0  0  0  0  0  0  0  0  0
    0.0768   -2.3215    0.0000 C   0  0  0  0  0  0  0  0  0  0  0  0
   -0.4752   -1.7084    0.0000 Cl  0  0  0  0  0  0  0  0  0  0  0  0
    0.8838   -2.1500    0.0000 C   0  0  0  0  0  0  0  0  0  0  0  0
    1.4358   -2.7631    0.0000 N   0  0  0  0  0  0  0  0  0  0  0  0
    1.1387   -1.3654    0.0000 C   0  0  0  0  0  0  0  0  0  0  0  0
    0.6538   -0.6979    0.0000 C   0  0  0  0  0  0  0  0  0  0  0  0
    1.1387   -0.0305    0.0000 N   0  0  0  0  0  0  0  0  0  0  0  0
    1.9233   -0.2854    0.0000 C   0  0  0  0  0  0  0  0  0  0  0  0
    2.6378    0.1271    0.0000 C   0  0  0  0  0  0  0  0  0  0  0  0
    3.3523   -0.2854    0.0000 C   0  0  0  0  0  0  0  0  0  0  0  0
    3.3523   -1.1104    0.0000 C   0  0  0  0  0  0  0  0  0  0  0  0
    2.6378   -1.5229    0.0000 C   0  0  0  0  0  0  0  0  0  0  0  0
    1.9233   -1.1104    0.0000 N   0  0  0  0  0  0  0  0  0  0  0  0
    1.9629   -5.6129    0.0000 C   0  0  0  0  0  0  0  0  0  0  0  0
    2.7879   -5.6129    0.0000 C   0  0  0  0  0  0  0  0  0  0  0  0
  1  2  1  0
  2  3  2  0
  2  4  1  0
  4  5  1  0
  5  6  1  0
  6  7  1  0
  7  8  1  0
  8  9  1  0
  4  9  1  0
  7 10  1  0
 10 11  1  0
 11 12  2  0
 12 13  1  0
 12 14  1  0
 14 15  1  0
 15 16  1  0
 16 17  2  0
 17 18  1  0
 18 19  2  0
 19 20  1  0
 19 21  1  0
 21 22  2  0
 16 22  1  0
 21 23  1  0
 23 24  2  0
 24 25  1  0
 25 26  2  0
 26 27  1  0
 27 28  2  0
 28 29  1  0
 29 30  2  0
 30 31  1  0
 23 31  1  0
 26 31  1  0
 14 32  2  0
 10 32  1  0
 32 33  1  0
M  END
>  <pIC50>  (311) 
5.77

>  <chembl_id>  (311) 
CHEMBL3823929

>  <canonical_smiles>  (311) 
CC(=O)N1CCC(CC1)n2nc(C)c(Nc3ncc(Cl)c(n3)c4cnc5ccccn45)c2C

$$$$
CHEMBL3824296
     RDKit          2D

 30 34  0  0  0  0  0  0  0  0999 V2000
    2.7879   -5.6129    0.0000 C   0  0  0  0  0  0  0  0  0  0  0  0
    1.9629   -5.6129    0.0000 C   0  0  0  0  0  0  0  0  0  0  0  0
    1.4780   -6.2803    0.0000 N   0  0  0  0  0  0  0  0  0  0  0  0
    0.6933   -6.0254    0.0000 N   0  0  0  0  0  0  0  0  0  0  0  0
    0.0259   -6.5103    0.0000 C   0  0  0  0  0  0  0  0  0  0  0  0
    0.1121   -7.3308    0.0000 C   0  0  0  0  0  0  0  0  0  0  0  0
   -0.5553   -7.8157    0.0000 C   0  0  0  0  0  0  0  0  0  0  0  0
   -1.3090   -7.4801    0.0000 N   0  0  0  0  0  0  0  0  0  0  0  0
   -1.3952   -6.6597    0.0000 C   0  0  0  0  0  0  0  0  0  0  0  0
   -0.7278   -6.1747    0.0000 C   0  0  0  0  0  0  0  0  0  0  0  0
    0.6933   -5.2004    0.0000 C   0  0  0  0  0  0  0  0  0  0  0  0
    0.0259   -4.7155    0.0000 C   0  0  0  0  0  0  0  0  0  0  0  0
    1.4780   -4.9454    0.0000 C   0  0  0  0  0  0  0  0  0  0  0  0
    1.7329   -4.1608    0.0000 N   0  0  0  0  0  0  0  0  0  0  0  0
    1.1809   -3.5477    0.0000 C   0  0  0  0  0  0  0  0  0  0  0  0
    0.3739   -3.7192    0.0000 N   0  0  0  0  0  0  0  0  0  0  0  0
   -0.1781   -3.1062    0.0000 C   0  0  0  0  0  0  0  0  0  0  0  0
    0.0768   -2.3215    0.0000 C   0  0  0  0  0  0  0  0  0  0  0  0
   -0.4752   -1.7084    0.0000 Cl  0  0  0  0  0  0  0  0  0  0  0  0
    0.8838   -2.1500    0.0000 C   0  0  0  0  0  0  0  0  0  0  0  0
    1.4358   -2.7631    0.0000 N   0  0  0  0  0  0  0  0  0  0  0  0
    1.1387   -1.3654    0.0000 C   0  0  0  0  0  0  0  0  0  0  0  0
    0.6538   -0.6979    0.0000 C   0  0  0  0  0  0  0  0  0  0  0  0
    1.1387   -0.0305    0.0000 N   0  0  0  0  0  0  0  0  0  0  0  0
    1.9233   -0.2854    0.0000 N   0  0  0  0  0  0  0  0  0  0  0  0
    2.6378    0.1271    0.0000 C   0  0  0  0  0  0  0  0  0  0  0  0
    3.3523   -0.2854    0.0000 C   0  0  0  0  0  0  0  0  0  0  0  0
    3.3523   -1.1104    0.0000 C   0  0  0  0  0  0  0  0  0  0  0  0
    2.6378   -1.5229    0.0000 C   0  0  0  0  0  0  0  0  0  0  0  0
    1.9233   -1.1104    0.0000 C   0  0  0  0  0  0  0  0  0  0  0  0
  1  2  1  0
  2  3  2  0
  3  4  1  0
  4  5  1  0
  5  6  1  0
  6  7  1  0
  7  8  1  0
  8  9  1  0
  9 10  1  0
  5 10  1  0
  4 11  1  0
 11 12  1  0
 11 13  2  0
  2 13  1  0
 13 14  1  0
 14 15  1  0
 15 16  2  0
 16 17  1  0
 17 18  2  0
 18 19  1  0
 18 20  1  0
 20 21  2  0
 15 21  1  0
 20 22  1  0
 22 23  1  0
 23 24  2  0
 24 25  1  0
 25 26  1  0
 26 27  2  0
 27 28  1  0
 28 29  2  0
 29 30  1  0
 22 30  2  0
 25 30  1  0
M  END
>  <pIC50>  (312) 
5.82

>  <chembl_id>  (312) 
CHEMBL3824296

>  <canonical_smiles>  (312) 
Cc1nn(C2CCNCC2)c(C)c1Nc3ncc(Cl)c(n3)c4cnn5ccccc45

$$$$
CHEMBL382607
     RDKit          2D

 33 37  0  0  0  0  0  0  0  0999 V2000
    4.0668    5.6479    0.0000 N   0  0  0  0  0  0  0  0  0  0  0  0
    4.0668    4.8229    0.0000 C   0  0  0  0  0  0  0  0  0  0  0  0
    4.7812    4.4104    0.0000 C   0  0  0  0  0  0  0  0  0  0  0  0
    4.7812    3.5854    0.0000 C   0  0  0  0  0  0  0  0  0  0  0  0
    4.0668    3.1729    0.0000 C   0  0  0  0  0  0  0  0  0  0  0  0
    3.3523    3.5854    0.0000 C   0  0  0  0  0  0  0  0  0  0  0  0
    3.3523    4.4104    0.0000 C   0  0  0  0  0  0  0  0  0  0  0  0
    4.0668    2.3479    0.0000 N   0  0  0  0  0  0  0  0  0  0  0  0
    3.3523    1.9354    0.0000 C   0  0  0  0  0  0  0  0  0  0  0  0
    3.3523    1.1104    0.0000 C   0  0  0  0  0  0  0  0  0  0  0  0
    2.6378    0.6979    0.0000 C   0  0  0  0  0  0  0  0  0  0  0  0
    2.6378   -0.1271    0.0000 N   0  0  0  0  0  0  0  0  0  0  0  0
    1.9233   -0.5396    0.0000 C   0  0  0  0  0  0  0  0  0  0  0  0
    1.9233   -1.3646    0.0000 C   0  0  0  0  0  0  0  0  0  0  0  0
    1.2089   -1.7771    0.0000 C   0  0  0  0  0  0  0  0  0  0  0  0
    0.4944   -1.3646    0.0000 C   0  0  0  0  0  0  0  0  0  0  0  0
    0.4944   -0.5396    0.0000 C   0  0  0  0  0  0  0  0  0  0  0  0
    1.2089   -0.1271    0.0000 C   0  0  0  0  0  0  0  0  0  0  0  0
   -0.2201   -1.7771    0.0000 S   0  0  0  0  0  0  0  0  0  0  0  0
   -0.6326   -1.0626    0.0000 O   0  0  0  0  0  0  0  0  0  0  0  0
    0.1924   -2.4915    0.0000 O   0  0  0  0  0  0  0  0  0  0  0  0
   -0.9345   -2.1896    0.0000 C   0  0  0  0  0  0  0  0  0  0  0  0
   -0.9345   -3.0146    0.0000 C   0  0  0  0  0  0  0  0  0  0  0  0
   -1.6490   -3.4271    0.0000 C   0  0  0  0  0  0  0  0  0  0  0  0
   -2.3635   -3.0146    0.0000 C   0  0  0  0  0  0  0  0  0  0  0  0
   -2.3635   -2.1896    0.0000 C   0  0  0  0  0  0  0  0  0  0  0  0
   -1.6490   -1.7771    0.0000 C   0  0  0  0  0  0  0  0  0  0  0  0
    1.9233    1.1104    0.0000 N   0  0  0  0  0  0  0  0  0  0  0  0
    1.1387    0.8555    0.0000 N   0  0  0  0  0  0  0  0  0  0  0  0
    0.6538    1.5229    0.0000 C   0  0  0  0  0  0  0  0  0  0  0  0
    1.1387    2.1904    0.0000 N   0  0  0  0  0  0  0  0  0  0  0  0
    1.9233    1.9354    0.0000 C   0  0  0  0  0  0  0  0  0  0  0  0
    2.6378    2.3479    0.0000 N   0  0  0  0  0  0  0  0  0  0  0  0
  2  1  1  6
  2  3  1  0
  3  4  1  0
  5  4  1  0
  5  6  1  0
  6  7  1  0
  2  7  1  0
  5  8  1  1
  8  9  1  0
  9 10  1  0
 10 11  2  0
 11 12  1  0
 12 13  1  0
 13 14  2  0
 14 15  1  0
 15 16  2  0
 16 17  1  0
 17 18  2  0
 13 18  1  0
 16 19  1  0
 19 20  2  0
 19 21  2  0
 19 22  1  0
 22 23  2  0
 23 24  1  0
 24 25  2  0
 25 26  1  0
 26 27  2  0
 22 27  1  0
 11 28  1  0
 28 29  1  0
 29 30  2  0
 30 31  1  0
 31 32  2  0
 28 32  1  0
 32 33  1  0
  9 33  2  0
M  END
>  <pIC50>  (313) 
6.59

>  <chembl_id>  (313) 
CHEMBL382607

>  <canonical_smiles>  (313) 
N[C@@H]1CC[C@H](CC1)Nc2cc(Nc3ccc(cc3)S(=O)(=O)c4ccccc4)n5ncnc5n2

$$$$
CHEMBL401303
     RDKit          2D

 25 28  0  0  0  0  0  0  0  0999 V2000
    3.3523    3.5854    0.0000 Cl  0  0  0  0  0  0  0  0  0  0  0  0
    4.0668    3.1729    0.0000 C   0  0  0  0  0  0  0  0  0  0  0  0
    4.7812    3.5854    0.0000 C   0  0  0  0  0  0  0  0  0  0  0  0
    5.4957    3.1729    0.0000 C   0  0  0  0  0  0  0  0  0  0  0  0
    5.4957    2.3479    0.0000 C   0  0  0  0  0  0  0  0  0  0  0  0
    4.7812    1.9354    0.0000 C   0  0  0  0  0  0  0  0  0  0  0  0
    4.0668    2.3479    0.0000 C   0  0  0  0  0  0  0  0  0  0  0  0
    3.3523    1.9354    0.0000 C   0  0  0  0  0  0  0  0  0  0  0  0
    3.3523    1.1104    0.0000 C   0  0  0  0  0  0  0  0  0  0  0  0
    2.6378    0.6979    0.0000 C   0  0  0  0  0  0  0  0  0  0  0  0
    2.6378   -0.1271    0.0000 N   0  0  0  0  0  0  0  0  0  0  0  0
    3.3523   -0.5396    0.0000 C   0  0  0  0  0  0  0  0  0  0  0  0
    3.3523   -1.3646    0.0000 C   0  0  0  0  0  0  0  0  0  0  0  0
    4.0668   -1.7771    0.0000 C   0  0  0  0  0  0  0  0  0  0  0  0
    4.0668   -2.6021    0.0000 C   0  0  0  0  0  0  0  0  0  0  0  0
    3.3523   -3.0146    0.0000 C   0  0  0  0  0  0  0  0  0  0  0  0
    2.6378   -2.6021    0.0000 N   0  0  0  0  0  0  0  0  0  0  0  0
    2.6378   -1.7771    0.0000 C   0  0  0  0  0  0  0  0  0  0  0  0
    1.9233    1.1104    0.0000 N   0  0  0  0  0  0  0  0  0  0  0  0
    1.1387    0.8555    0.0000 N   0  0  0  0  0  0  0  0  0  0  0  0
    0.6538    1.5229    0.0000 C   0  0  0  0  0  0  0  0  0  0  0  0
    1.1387    2.1904    0.0000 C   0  0  0  0  0  0  0  0  0  0  0  0
    0.8838    2.9750    0.0000 Br  0  0  0  0  0  0  0  0  0  0  0  0
    1.9233    1.9354    0.0000 C   0  0  0  0  0  0  0  0  0  0  0  0
    2.6378    2.3479    0.0000 N   0  0  0  0  0  0  0  0  0  0  0  0
  1  2  1  0
  2  3  2  0
  3  4  1  0
  4  5  2  0
  5  6  1  0
  6  7  2  0
  2  7  1  0
  7  8  1  0
  8  9  1  0
  9 10  2  0
 10 11  1  0
 11 12  1  0
 12 13  1  0
 13 14  2  0
 14 15  1  0
 15 16  2  0
 16 17  1  0
 17 18  2  0
 13 18  1  0
 10 19  1  0
 19 20  1  0
 20 21  2  0
 21 22  1  0
 22 23  1  0
 22 24  2  0
 19 24  1  0
 24 25  1  0
  8 25  2  0
M  END
>  <pIC50>  (314) 
8.52

>  <chembl_id>  (314) 
CHEMBL401303

>  <canonical_smiles>  (314) 
Clc1ccccc1c2cc(NCc3cccnc3)n4ncc(Br)c4n2

$$$$
CHEMBL402548
     RDKit          2D

 35 39  0  0  1  0  0  0  0  0999 V2000
   -0.4529   -2.3984    0.0000 C   0  0  0  0  0  0  0  0  0  0  0  0
   -0.0404   -1.6839    0.0000 O   0  0  0  0  0  0  0  0  0  0  0  0
   -0.4529   -0.9694    0.0000 C   0  0  0  0  0  0  0  0  0  0  0  0
   -0.0404   -0.2549    0.0000 C   0  0  0  0  0  0  0  0  0  0  0  0
   -0.4529    0.4595    0.0000 O   0  0  0  0  0  0  0  0  0  0  0  0
    0.7846   -0.2549    0.0000 N   0  0  0  0  0  0  0  0  0  0  0  0
    1.2695    0.4125    0.0000 C   0  0  0  0  0  0  0  0  0  0  0  0
    2.0542    0.1576    0.0000 C   0  0  0  0  0  0  0  0  0  0  0  0
    2.8388    0.4125    0.0000 N   0  0  0  0  0  0  0  0  0  0  0  0
    3.3237   -0.2549    0.0000 N   0  0  0  0  0  0  0  0  0  0  0  0
    2.8388   -0.9224    0.0000 C   0  0  0  0  0  0  0  0  0  0  0  0
    3.0937   -1.7070    0.0000 N   0  0  0  0  0  0  0  0  0  0  0  0
    3.9007   -1.8785    0.0000 C   0  0  0  0  0  0  0  0  0  0  0  0
    4.4527   -1.2654    0.0000 O   0  0  0  0  0  0  0  0  0  0  0  0
    4.1556   -2.6631    0.0000 C   0  0  0  0  0  0  0  0  0  0  0  0
    4.9626   -2.8347    0.0000 C   0  0  0  0  0  0  0  0  0  0  0  0
    5.2175   -3.6193    0.0000 C   0  0  0  0  0  0  0  0  0  0  0  0
    4.6655   -4.2324    0.0000 C   0  0  0  0  0  0  0  0  0  0  0  0
    3.8585   -4.0609    0.0000 C   0  0  0  0  0  0  0  0  0  0  0  0
    3.6036   -3.2762    0.0000 C   0  0  0  0  0  0  0  0  0  0  0  0
    4.9205   -5.0170    0.0000 N   0  0  0  0  0  0  0  0  0  0  0  0
    5.7274   -5.1885    0.0000 C   0  0  0  0  0  0  0  0  0  0  0  0
    5.9824   -5.9732    0.0000 C   0  0  0  0  0  0  0  0  0  0  0  0
    5.4303   -6.5863    0.0000 N   0  0  0  0  0  0  0  0  0  0  0  0
    5.6853   -7.3709    0.0000 C   0  0  0  0  0  0  0  0  0  0  0  0
    4.6234   -6.4147    0.0000 C   0  0  0  0  0  0  0  0  0  0  0  0
    4.3684   -5.6301    0.0000 C   0  0  0  0  0  0  0  0  0  0  0  0
    2.0542   -0.6674    0.0000 C   0  0  0  0  0  0  0  0  0  0  0  0
    1.2695   -0.9224    0.0000 C   0  0  0  0  0  0  0  0  0  0  0  0
   -1.2779   -0.9694    0.0000 C   0  0  0  0  0  0  0  0  0  0  0  0
   -1.6904   -1.6839    0.0000 C   0  0  0  0  0  0  0  0  0  0  0  0
   -2.5154   -1.6839    0.0000 C   0  0  0  0  0  0  0  0  0  0  0  0
   -2.9279   -0.9694    0.0000 C   0  0  0  0  0  0  0  0  0  0  0  0
   -2.5154   -0.2549    0.0000 C   0  0  0  0  0  0  0  0  0  0  0  0
   -1.6904   -0.2549    0.0000 C   0  0  0  0  0  0  0  0  0  0  0  0
  1  2  1  0
  3  2  1  6
  3  4  1  0
  4  5  2  0
  4  6  1  0
  6  7  1  0
  7  8  1  0
  8  9  2  0
  9 10  1  0
 10 11  1  0
 11 12  1  0
 12 13  1  0
 13 14  2  0
 13 15  1  0
 15 16  2  0
 16 17  1  0
 17 18  2  0
 18 19  1  0
 19 20  2  0
 15 20  1  0
 18 21  1  0
 21 22  1  0
 22 23  1  0
 23 24  1  0
 24 25  1  0
 24 26  1  0
 26 27  1  0
 21 27  1  0
 11 28  2  0
  8 28  1  0
 28 29  1  0
  6 29  1  0
  3 30  1  0
 30 31  2  0
 31 32  1  0
 32 33  2  0
 33 34  1  0
 34 35  2  0
 30 35  1  0
M  END
>  <pIC50>  (315) 
6.34

>  <chembl_id>  (315) 
CHEMBL402548

>  <canonical_smiles>  (315) 
CO[C@@H](C(=O)N1Cc2n[nH]c(NC(=O)c3ccc(cc3)N4CCN(C)CC4)c2C1)c5ccccc5

$$$$
CHEMBL424696
     RDKit          2D

 25 28  0  0  0  0  0  0  0  0999 V2000
    0.6078    3.6509    0.0000 C   0  0  0  0  0  0  0  0  0  0  0  0
    1.3222    3.2384    0.0000 C   0  0  0  0  0  0  0  0  0  0  0  0
    1.3222    2.4134    0.0000 C   0  0  0  0  0  0  0  0  0  0  0  0
    0.6078    2.0009    0.0000 C   0  0  0  0  0  0  0  0  0  0  0  0
   -0.1067    2.4134    0.0000 C   0  0  0  0  0  0  0  0  0  0  0  0
   -0.1067    3.2384    0.0000 C   0  0  0  0  0  0  0  0  0  0  0  0
    0.6078    1.1759    0.0000 O   0  0  0  0  0  0  0  0  0  0  0  0
    1.3222    0.7634    0.0000 C   0  0  0  0  0  0  0  0  0  0  0  0
    2.0367    1.1759    0.0000 N   0  0  0  0  0  0  0  0  0  0  0  0
    2.7512    0.7634    0.0000 C   0  0  0  0  0  0  0  0  0  0  0  0
    2.7512   -0.0616    0.0000 C   0  0  0  0  0  0  0  0  0  0  0  0
    2.0367   -0.4741    0.0000 C   0  0  0  0  0  0  0  0  0  0  0  0
    1.3222   -0.0616    0.0000 N   0  0  0  0  0  0  0  0  0  0  0  0
    2.0367   -1.2991    0.0000 C   0  0  0  0  0  0  0  0  0  0  0  0
    2.7041   -1.7840    0.0000 C   0  0  0  0  0  0  0  0  0  0  0  0
    2.4492   -2.5687    0.0000 N   0  0  0  0  0  0  0  0  0  0  0  0
    1.6242   -2.5687    0.0000 C   0  0  0  0  0  0  0  0  0  0  0  0
    1.1393   -3.2361    0.0000 N   0  0  0  0  0  0  0  0  0  0  0  0
    0.3188   -3.1499    0.0000 C   0  0  0  0  0  0  0  0  0  0  0  0
   -0.1661   -3.8173    0.0000 C   0  0  0  0  0  0  0  0  0  0  0  0
   -0.9866   -3.7311    0.0000 C   0  0  0  0  0  0  0  0  0  0  0  0
   -1.3222   -2.9774    0.0000 C   0  0  0  0  0  0  0  0  0  0  0  0
   -0.8372   -2.3099    0.0000 C   0  0  0  0  0  0  0  0  0  0  0  0
   -0.0168   -2.3962    0.0000 N   0  0  0  0  0  0  0  0  0  0  0  0
    1.3693   -1.7840    0.0000 S   0  0  0  0  0  0  0  0  0  0  0  0
  1  2  1  0
  2  3  1  0
  3  4  1  0
  4  5  1  0
  5  6  1  0
  1  6  1  0
  4  7  1  0
  7  8  1  0
  8  9  2  0
  9 10  1  0
 10 11  2  0
 11 12  1  0
 12 13  2  0
  8 13  1  0
 12 14  1  0
 14 15  2  0
 15 16  1  0
 16 17  2  0
 17 18  1  0
 18 19  1  0
 19 20  2  0
 20 21  1  0
 21 22  2  0
 22 23  1  0
 23 24  2  0
 19 24  1  0
 17 25  1  0
 14 25  1  0
M  END
>  <pIC50>  (316) 
7.85

>  <chembl_id>  (316) 
CHEMBL424696

>  <canonical_smiles>  (316) 
C1CCC(CC1)Oc2nccc(n2)c3cnc(Nc4ccccn4)s3

$$$$
CHEMBL428690
     RDKit          2D

 28 31  0  0  1  0  0  0  0  0999 V2000
    1.4289   -4.9500    0.0000 C   0  0  0  0  0  0  0  0  0  0  0  0
    1.4289   -4.1250    0.0000 N   0  0  0  0  0  0  0  0  0  0  0  0
    0.7145   -3.7125    0.0000 C   0  0  0  0  0  0  0  0  0  0  0  0
    0.7145   -2.8875    0.0000 C   0  0  0  0  0  0  0  0  0  0  0  0
    1.4289   -2.4750    0.0000 C   0  0  0  0  0  0  0  0  0  0  0  0
    2.1434   -2.8875    0.0000 C   0  0  0  0  0  0  0  0  0  0  0  0
    2.8579   -2.4750    0.0000 O   0  0  0  0  0  0  0  0  0  0  0  0
    2.1434   -3.7125    0.0000 C   0  0  0  0  0  0  0  0  0  0  0  0
    1.4289   -1.6500    0.0000 C   0  0  0  0  0  0  0  0  0  0  0  0
    0.7145   -1.2375    0.0000 C   0  0  0  0  0  0  0  0  0  0  0  0
    0.0000   -1.6500    0.0000 O   0  0  0  0  0  0  0  0  0  0  0  0
    0.7145   -0.4125    0.0000 C   0  0  0  0  0  0  0  0  0  0  0  0
    1.4289    0.0000    0.0000 C   0  0  0  0  0  0  0  0  0  0  0  0
    1.4289    0.8250    0.0000 O   0  0  0  0  0  0  0  0  0  0  0  0
    2.1434   -0.4125    0.0000 C   0  0  0  0  0  0  0  0  0  0  0  0
    2.8579    0.0000    0.0000 C   0  0  0  0  0  0  0  0  0  0  0  0
    2.8579    0.8250    0.0000 O   0  0  0  0  0  0  0  0  0  0  0  0
    3.5724   -0.4125    0.0000 C   0  0  0  0  0  0  0  0  0  0  0  0
    3.5724   -1.2375    0.0000 C   0  0  0  0  0  0  0  0  0  0  0  0
    2.8579   -1.6500    0.0000 O   0  0  0  0  0  0  0  0  0  0  0  0
    2.1434   -1.2375    0.0000 C   0  0  0  0  0  0  0  0  0  0  0  0
    4.2868   -1.6500    0.0000 C   0  0  0  0  0  0  0  0  0  0  0  0
    5.0013   -1.2375    0.0000 C   0  0  0  0  0  0  0  0  0  0  0  0
    5.7158   -1.6500    0.0000 C   0  0  0  0  0  0  0  0  0  0  0  0
    5.7158   -2.4750    0.0000 C   0  0  0  0  0  0  0  0  0  0  0  0
    5.0013   -2.8875    0.0000 C   0  0  0  0  0  0  0  0  0  0  0  0
    4.2868   -2.4750    0.0000 C   0  0  0  0  0  0  0  0  0  0  0  0
    3.5724   -2.8875    0.0000 Cl  0  0  0  0  0  0  0  0  0  0  0  0
  1  2  1  0
  2  3  1  0
  3  4  1  0
  5  4  1  0
  5  6  1  0
  6  7  1  6
  6  8  1  0
  2  8  1  0
  5  9  1  6
  9 10  2  0
 10 11  1  0
 10 12  1  0
 12 13  2  0
 13 14  1  0
 13 15  1  0
 15 16  1  0
 16 17  2  0
 16 18  1  0
 18 19  2  0
 19 20  1  0
 20 21  1  0
  9 21  1  0
 15 21  2  0
 19 22  1  0
 22 23  2  0
 23 24  1  0
 24 25  2  0
 25 26  1  0
 26 27  2  0
 22 27  1  0
 27 28  1  0
M  END
>  <pIC50>  (317) 
6.77

>  <chembl_id>  (317) 
CHEMBL428690

>  <canonical_smiles>  (317) 
CN1CC[C@@H]([C@H](O)C1)c2c(O)cc(O)c3C(=O)C=C(Oc23)c4ccccc4Cl

$$$$
CHEMBL446024
     RDKit          2D

 21 23  0  0  0  0  0  0  0  0999 V2000
    2.5820   -6.1716    0.0000 F   0  0  0  0  0  0  0  0  0  0  0  0
    2.0300   -5.5585    0.0000 C   0  0  0  0  0  0  0  0  0  0  0  0
    2.6431   -5.0065    0.0000 F   0  0  0  0  0  0  0  0  0  0  0  0
    1.4169   -6.1106    0.0000 F   0  0  0  0  0  0  0  0  0  0  0  0
    1.4780   -4.9454    0.0000 C   0  0  0  0  0  0  0  0  0  0  0  0
    1.7329   -4.1608    0.0000 N   0  0  0  0  0  0  0  0  0  0  0  0
    1.1809   -3.5477    0.0000 C   0  0  0  0  0  0  0  0  0  0  0  0
    0.3739   -3.7192    0.0000 N   0  0  0  0  0  0  0  0  0  0  0  0
   -0.1781   -3.1062    0.0000 C   0  0  0  0  0  0  0  0  0  0  0  0
    0.0768   -2.3215    0.0000 C   0  0  0  0  0  0  0  0  0  0  0  0
    0.8838   -2.1500    0.0000 C   0  0  0  0  0  0  0  0  0  0  0  0
    1.4358   -2.7631    0.0000 N   0  0  0  0  0  0  0  0  0  0  0  0
    1.1387   -1.3654    0.0000 C   0  0  0  0  0  0  0  0  0  0  0  0
    0.6538   -0.6979    0.0000 C   0  0  0  0  0  0  0  0  0  0  0  0
    1.1387   -0.0305    0.0000 N   0  0  0  0  0  0  0  0  0  0  0  0
    1.9233   -0.2854    0.0000 N   0  0  0  0  0  0  0  0  0  0  0  0
    2.6378    0.1271    0.0000 N   0  0  0  0  0  0  0  0  0  0  0  0
    3.3523   -0.2854    0.0000 C   0  0  0  0  0  0  0  0  0  0  0  0
    3.3523   -1.1104    0.0000 C   0  0  0  0  0  0  0  0  0  0  0  0
    2.6378   -1.5229    0.0000 C   0  0  0  0  0  0  0  0  0  0  0  0
    1.9233   -1.1104    0.0000 C   0  0  0  0  0  0  0  0  0  0  0  0
  1  2  1  0
  2  3  1  0
  2  4  1  0
  2  5  1  0
  5  6  1  0
  6  7  1  0
  7  8  2  0
  8  9  1  0
  9 10  2  0
 10 11  1  0
 11 12  2  0
  7 12  1  0
 11 13  1  0
 13 14  1  0
 14 15  2  0
 15 16  1  0
 16 17  1  0
 17 18  2  0
 18 19  1  0
 19 20  2  0
 20 21  1  0
 13 21  2  0
 16 21  1  0
M  END
>  <pIC50>  (318) 
6.00

>  <chembl_id>  (318) 
CHEMBL446024

>  <canonical_smiles>  (318) 
FC(F)(F)CNc1nccc(n1)c2cnn3ncccc23

$$$$
CHEMBL447317
     RDKit          2D

 33 38  0  0  0  0  0  0  0  0999 V2000
    0.7011   -6.6075    0.0000 C   0  0  0  0  0  0  0  0  0  0  0  0
    0.5968   -5.7891    0.0000 N   0  0  0  0  0  0  0  0  0  0  0  0
    1.2534   -5.2896    0.0000 C   0  0  0  0  0  0  0  0  0  0  0  0
    2.0143   -5.6085    0.0000 N   0  0  0  0  0  0  0  0  0  0  0  0
    1.1492   -4.4712    0.0000 S   0  0  0  0  0  0  0  0  0  0  0  0
    1.8058   -3.9718    0.0000 C   0  0  0  0  0  0  0  0  0  0  0  0
    1.7016   -3.1534    0.0000 C   0  0  0  0  0  0  0  0  0  0  0  0
    2.3582   -2.6539    0.0000 C   0  0  0  0  0  0  0  0  0  0  0  0
    2.2539   -1.8355    0.0000 N   0  0  0  0  0  0  0  0  0  0  0  0
    2.8548   -1.2701    0.0000 C   0  0  0  0  0  0  0  0  0  0  0  0
    3.6653   -1.4239    0.0000 O   0  0  0  0  0  0  0  0  0  0  0  0
    2.5027   -0.5240    0.0000 C   0  0  0  0  0  0  0  0  0  0  0  0
    1.6843   -0.6283    0.0000 C   0  0  0  0  0  0  0  0  0  0  0  0
    1.5306   -1.4388    0.0000 C   0  0  0  0  0  0  0  0  0  0  0  0
    0.7845   -1.7908    0.0000 O   0  0  0  0  0  0  0  0  0  0  0  0
    1.0926   -0.0534    0.0000 N   0  0  0  0  0  0  0  0  0  0  0  0
    0.2868   -0.2306    0.0000 C   0  0  0  0  0  0  0  0  0  0  0  0
   -0.1307    0.4810    0.0000 C   0  0  0  0  0  0  0  0  0  0  0  0
    0.4170    1.0979    0.0000 C   0  0  0  0  0  0  0  0  0  0  0  0
    0.3250    1.9178    0.0000 C   0  0  0  0  0  0  0  0  0  0  0  0
    0.9891    2.4074    0.0000 C   0  0  0  0  0  0  0  0  0  0  0  0
    1.7451    2.0771    0.0000 C   0  0  0  0  0  0  0  0  0  0  0  0
    1.8652    1.2167    0.0000 C   0  0  0  0  0  0  0  0  0  0  0  0
    2.6477    0.9555    0.0000 C   0  0  0  0  0  0  0  0  0  0  0  0
    3.2968    1.4647    0.0000 C   0  0  0  0  0  0  0  0  0  0  0  0
    3.9817    1.0048    0.0000 C   0  0  0  0  0  0  0  0  0  0  0  0
    4.7818    1.2060    0.0000 C   0  0  0  0  0  0  0  0  0  0  0  0
    5.3561    0.6137    0.0000 C   0  0  0  0  0  0  0  0  0  0  0  0
    5.1303   -0.1798    0.0000 C   0  0  0  0  0  0  0  0  0  0  0  0
    4.3302   -0.3810    0.0000 C   0  0  0  0  0  0  0  0  0  0  0  0
    3.7559    0.2113    0.0000 C   0  0  0  0  0  0  0  0  0  0  0  0
    2.9315    0.1808    0.0000 N   0  0  0  0  0  0  0  0  0  0  0  0
    1.1730    0.7676    0.0000 C   0  0  0  0  0  0  0  0  0  0  0  0
  1  2  1  0
  2  3  1  0
  3  4  2  0
  3  5  1  0
  5  6  1  0
  6  7  1  0
  7  8  1  0
  8  9  1  0
  9 10  1  0
 10 11  2  0
 10 12  1  0
 12 13  2  0
 13 14  1  0
  9 14  1  0
 14 15  2  0
 13 16  1  0
 16 17  1  0
 17 18  2  0
 18 19  1  0
 19 20  2  0
 20 21  1  0
 21 22  2  0
 22 23  1  0
 23 24  1  0
 24 25  1  0
 25 26  1  0
 26 27  2  0
 27 28  1  0
 28 29  2  0
 29 30  1  0
 30 31  2  0
 26 31  1  0
 31 32  1  0
 12 32  1  0
 24 32  1  0
 23 33  2  0
 16 33  1  0
 19 33  1  0
M  END
>  <pIC50>  (319) 
5.28

>  <chembl_id>  (319) 
CHEMBL447317

>  <canonical_smiles>  (319) 
CNC(=N)SCCCN1C(=O)C2=C(C1=O)n3ccc4cccc(C5Cc6ccccc6N25)c34

$$$$
CHEMBL455931
     RDKit          2D

 28 32  0  0  0  0  0  0  0  0999 V2000
    4.0025    2.4233    0.0000 F   0  0  0  0  0  0  0  0  0  0  0  0
    4.5546    3.0364    0.0000 C   0  0  0  0  0  0  0  0  0  0  0  0
    4.2996    3.8210    0.0000 C   0  0  0  0  0  0  0  0  0  0  0  0
    4.8517    4.4341    0.0000 C   0  0  0  0  0  0  0  0  0  0  0  0
    5.6586    4.2626    0.0000 C   0  0  0  0  0  0  0  0  0  0  0  0
    5.9136    3.4780    0.0000 C   0  0  0  0  0  0  0  0  0  0  0  0
    5.3615    2.8649    0.0000 C   0  0  0  0  0  0  0  0  0  0  0  0
    5.6165    2.0803    0.0000 C   0  0  0  0  0  0  0  0  0  0  0  0
    6.4235    1.9087    0.0000 C   0  0  0  0  0  0  0  0  0  0  0  0
    6.6784    1.1241    0.0000 C   0  0  0  0  0  0  0  0  0  0  0  0
    6.1264    0.5110    0.0000 C   0  0  0  0  0  0  0  0  0  0  0  0
    5.3194    0.6825    0.0000 C   0  0  0  0  0  0  0  0  0  0  0  0
    5.0645    1.4672    0.0000 C   0  0  0  0  0  0  0  0  0  0  0  0
    4.7674    0.0694    0.0000 C   0  0  0  0  0  0  0  0  0  0  0  0
    5.0223   -0.7152    0.0000 O   0  0  0  0  0  0  0  0  0  0  0  0
    3.9604    0.2410    0.0000 N   0  0  0  0  0  0  0  0  0  0  0  0
    3.7054    1.0256    0.0000 C   0  0  0  0  0  0  0  0  0  0  0  0
    2.8985    1.1971    0.0000 C   0  0  0  0  0  0  0  0  0  0  0  0
    2.3464    0.5840    0.0000 C   0  0  0  0  0  0  0  0  0  0  0  0
    2.6014   -0.2006    0.0000 C   0  0  0  0  0  0  0  0  0  0  0  0
    3.4084   -0.3721    0.0000 C   0  0  0  0  0  0  0  0  0  0  0  0
    1.9339   -0.6855    0.0000 N   0  0  0  0  0  0  0  0  0  0  0  0
    1.2665   -0.2006    0.0000 C   0  0  0  0  0  0  0  0  0  0  0  0
    0.4595   -0.3721    0.0000 C   0  0  0  0  0  0  0  0  0  0  0  0
   -0.0925    0.2410    0.0000 C   0  0  0  0  0  0  0  0  0  0  0  0
    0.1624    1.0256    0.0000 C   0  0  0  0  0  0  0  0  0  0  0  0
    0.9694    1.1971    0.0000 C   0  0  0  0  0  0  0  0  0  0  0  0
    1.5214    0.5840    0.0000 C   0  0  0  0  0  0  0  0  0  0  0  0
  1  2  1  0
  2  3  2  0
  3  4  1  0
  4  5  2  0
  5  6  1  0
  6  7  2  0
  2  7  1  0
  7  8  1  0
  8  9  2  0
  9 10  1  0
 10 11  2  0
 11 12  1  0
 12 13  2  0
  8 13  1  0
 12 14  1  0
 14 15  2  0
 14 16  1  0
 16 17  1  0
 17 18  1  0
 18 19  1  0
 19 20  2  0
 20 21  1  0
 16 21  1  0
 20 22  1  0
 22 23  1  0
 23 24  2  0
 24 25  1  0
 25 26  2  0
 26 27  1  0
 27 28  2  0
 19 28  1  0
 23 28  1  0
M  END
>  <pIC50>  (320) 
3.47

>  <chembl_id>  (320) 
CHEMBL455931

>  <canonical_smiles>  (320) 
Fc1ccccc1c2cccc(c2)C(=O)N3CCc4c(C3)[nH]c5ccccc45

$$$$
CHEMBL456112
     RDKit          2D

 29 33  0  0  0  0  0  0  0  0999 V2000
    7.5697    5.3173    0.0000 C   0  0  0  0  0  0  0  0  0  0  0  0
    7.0176    4.7042    0.0000 O   0  0  0  0  0  0  0  0  0  0  0  0
    7.2726    3.9195    0.0000 C   0  0  0  0  0  0  0  0  0  0  0  0
    8.0796    3.7480    0.0000 C   0  0  0  0  0  0  0  0  0  0  0  0
    8.3345    2.9634    0.0000 C   0  0  0  0  0  0  0  0  0  0  0  0
    7.7825    2.3503    0.0000 C   0  0  0  0  0  0  0  0  0  0  0  0
    6.9755    2.5218    0.0000 C   0  0  0  0  0  0  0  0  0  0  0  0
    6.7206    3.3064    0.0000 C   0  0  0  0  0  0  0  0  0  0  0  0
    6.4235    1.9087    0.0000 C   0  0  0  0  0  0  0  0  0  0  0  0
    6.6784    1.1241    0.0000 C   0  0  0  0  0  0  0  0  0  0  0  0
    6.1264    0.5110    0.0000 C   0  0  0  0  0  0  0  0  0  0  0  0
    5.3194    0.6825    0.0000 C   0  0  0  0  0  0  0  0  0  0  0  0
    5.0645    1.4672    0.0000 C   0  0  0  0  0  0  0  0  0  0  0  0
    5.6165    2.0803    0.0000 C   0  0  0  0  0  0  0  0  0  0  0  0
    4.7674    0.0694    0.0000 C   0  0  0  0  0  0  0  0  0  0  0  0
    5.0223   -0.7152    0.0000 O   0  0  0  0  0  0  0  0  0  0  0  0
    3.9604    0.2410    0.0000 N   0  0  0  0  0  0  0  0  0  0  0  0
    3.7054    1.0256    0.0000 C   0  0  0  0  0  0  0  0  0  0  0  0
    2.8985    1.1971    0.0000 C   0  0  0  0  0  0  0  0  0  0  0  0
    2.3464    0.5840    0.0000 C   0  0  0  0  0  0  0  0  0  0  0  0
    2.6014   -0.2006    0.0000 C   0  0  0  0  0  0  0  0  0  0  0  0
    3.4084   -0.3721    0.0000 C   0  0  0  0  0  0  0  0  0  0  0  0
    1.9339   -0.6855    0.0000 N   0  0  0  0  0  0  0  0  0  0  0  0
    1.2665   -0.2006    0.0000 C   0  0  0  0  0  0  0  0  0  0  0  0
    0.4595   -0.3721    0.0000 C   0  0  0  0  0  0  0  0  0  0  0  0
   -0.0925    0.2410    0.0000 C   0  0  0  0  0  0  0  0  0  0  0  0
    0.1624    1.0256    0.0000 C   0  0  0  0  0  0  0  0  0  0  0  0
    0.9694    1.1971    0.0000 C   0  0  0  0  0  0  0  0  0  0  0  0
    1.5214    0.5840    0.0000 C   0  0  0  0  0  0  0  0  0  0  0  0
  1  2  1  0
  2  3  1  0
  3  4  2  0
  4  5  1  0
  5  6  2  0
  6  7  1  0
  7  8  2  0
  3  8  1  0
  7  9  1  0
  9 10  2  0
 10 11  1  0
 11 12  2  0
 12 13  1  0
 13 14  2  0
  9 14  1  0
 12 15  1  0
 15 16  2  0
 15 17  1  0
 17 18  1  0
 18 19  1  0
 19 20  1  0
 20 21  2  0
 21 22  1  0
 17 22  1  0
 21 23  1  0
 23 24  1  0
 24 25  2  0
 25 26  1  0
 26 27  2  0
 27 28  1  0
 28 29  2  0
 20 29  1  0
 24 29  1  0
M  END
>  <pIC50>  (321) 
3.37

>  <chembl_id>  (321) 
CHEMBL456112

>  <canonical_smiles>  (321) 
COc1cccc(c1)c2ccc(cc2)C(=O)N3CCc4c(C3)[nH]c5ccccc45

$$$$
CHEMBL456113
     RDKit          2D

 29 33  0  0  0  0  0  0  0  0999 V2000
    5.6586    4.2626    0.0000 C   0  0  0  0  0  0  0  0  0  0  0  0
    5.9136    3.4780    0.0000 O   0  0  0  0  0  0  0  0  0  0  0  0
    6.7206    3.3064    0.0000 C   0  0  0  0  0  0  0  0  0  0  0  0
    7.2726    3.9195    0.0000 C   0  0  0  0  0  0  0  0  0  0  0  0
    8.0796    3.7480    0.0000 C   0  0  0  0  0  0  0  0  0  0  0  0
    8.3345    2.9634    0.0000 C   0  0  0  0  0  0  0  0  0  0  0  0
    7.7825    2.3503    0.0000 C   0  0  0  0  0  0  0  0  0  0  0  0
    6.9755    2.5218    0.0000 C   0  0  0  0  0  0  0  0  0  0  0  0
    6.4235    1.9087    0.0000 C   0  0  0  0  0  0  0  0  0  0  0  0
    6.6784    1.1241    0.0000 C   0  0  0  0  0  0  0  0  0  0  0  0
    6.1264    0.5110    0.0000 C   0  0  0  0  0  0  0  0  0  0  0  0
    5.3194    0.6825    0.0000 C   0  0  0  0  0  0  0  0  0  0  0  0
    5.0645    1.4672    0.0000 C   0  0  0  0  0  0  0  0  0  0  0  0
    5.6165    2.0803    0.0000 C   0  0  0  0  0  0  0  0  0  0  0  0
    4.7674    0.0694    0.0000 C   0  0  0  0  0  0  0  0  0  0  0  0
    5.0223   -0.7152    0.0000 O   0  0  0  0  0  0  0  0  0  0  0  0
    3.9604    0.2410    0.0000 N   0  0  0  0  0  0  0  0  0  0  0  0
    3.7054    1.0256    0.0000 C   0  0  0  0  0  0  0  0  0  0  0  0
    2.8985    1.1971    0.0000 C   0  0  0  0  0  0  0  0  0  0  0  0
    2.3464    0.5840    0.0000 C   0  0  0  0  0  0  0  0  0  0  0  0
    2.6014   -0.2006    0.0000 C   0  0  0  0  0  0  0  0  0  0  0  0
    3.4084   -0.3721    0.0000 C   0  0  0  0  0  0  0  0  0  0  0  0
    1.9339   -0.6855    0.0000 N   0  0  0  0  0  0  0  0  0  0  0  0
    1.2665   -0.2006    0.0000 C   0  0  0  0  0  0  0  0  0  0  0  0
    0.4595   -0.3721    0.0000 C   0  0  0  0  0  0  0  0  0  0  0  0
   -0.0925    0.2410    0.0000 C   0  0  0  0  0  0  0  0  0  0  0  0
    0.1624    1.0256    0.0000 C   0  0  0  0  0  0  0  0  0  0  0  0
    0.9694    1.1971    0.0000 C   0  0  0  0  0  0  0  0  0  0  0  0
    1.5214    0.5840    0.0000 C   0  0  0  0  0  0  0  0  0  0  0  0
  1  2  1  0
  2  3  1  0
  3  4  2  0
  4  5  1  0
  5  6  2  0
  6  7  1  0
  7  8  2  0
  3  8  1  0
  8  9  1  0
  9 10  2  0
 10 11  1  0
 11 12  2  0
 12 13  1  0
 13 14  2  0
  9 14  1  0
 12 15  1  0
 15 16  2  0
 15 17  1  0
 17 18  1  0
 18 19  1  0
 19 20  1  0
 20 21  2  0
 21 22  1  0
 17 22  1  0
 21 23  1  0
 23 24  1  0
 24 25  2  0
 25 26  1  0
 26 27  2  0
 27 28  1  0
 28 29  2  0
 20 29  1  0
 24 29  1  0
M  END
>  <pIC50>  (322) 
3.49

>  <chembl_id>  (322) 
CHEMBL456113

>  <canonical_smiles>  (322) 
COc1ccccc1c2ccc(cc2)C(=O)N3CCc4c(C3)[nH]c5ccccc45

$$$$
CHEMBL456121
     RDKit          2D

 27 30  0  0  0  0  0  0  0  0999 V2000
    1.4358   -2.7631    0.0000 C   0  0  0  0  0  0  0  0  0  0  0  0
    1.1809   -3.5477    0.0000 C   0  0  0  0  0  0  0  0  0  0  0  0
    1.7329   -4.1608    0.0000 C   0  0  0  0  0  0  0  0  0  0  0  0
    1.4780   -4.9454    0.0000 C   0  0  0  0  0  0  0  0  0  0  0  0
    0.6710   -5.1170    0.0000 C   0  0  0  0  0  0  0  0  0  0  0  0
    0.1190   -4.5039    0.0000 C   0  0  0  0  0  0  0  0  0  0  0  0
    0.3739   -3.7192    0.0000 C   0  0  0  0  0  0  0  0  0  0  0  0
   -0.6880   -4.6754    0.0000 C   0  0  0  0  0  0  0  0  0  0  0  0
   -0.9429   -5.4600    0.0000 C   0  0  0  0  0  0  0  0  0  0  0  0
   -1.7499   -5.6315    0.0000 C   0  0  0  0  0  0  0  0  0  0  0  0
   -2.3020   -5.0184    0.0000 C   0  0  0  0  0  0  0  0  0  0  0  0
   -2.0470   -4.2338    0.0000 C   0  0  0  0  0  0  0  0  0  0  0  0
   -1.2400   -4.0623    0.0000 C   0  0  0  0  0  0  0  0  0  0  0  0
   -0.9851   -3.2777    0.0000 C   0  0  0  0  0  0  0  0  0  0  0  0
   -1.5371   -2.6646    0.0000 O   0  0  0  0  0  0  0  0  0  0  0  0
   -0.1781   -3.1062    0.0000 N   0  0  0  0  0  0  0  0  0  0  0  0
    0.0768   -2.3215    0.0000 C   0  0  0  0  0  0  0  0  0  0  0  0
    0.8838   -2.1500    0.0000 C   0  0  0  0  0  0  0  0  0  0  0  0
    1.1387   -1.3654    0.0000 C   0  0  0  0  0  0  0  0  0  0  0  0
    0.6538   -0.6979    0.0000 C   0  0  0  0  0  0  0  0  0  0  0  0
    1.1387   -0.0305    0.0000 N   0  0  0  0  0  0  0  0  0  0  0  0
    1.9233   -0.2854    0.0000 C   0  0  0  0  0  0  0  0  0  0  0  0
    2.6378    0.1271    0.0000 C   0  0  0  0  0  0  0  0  0  0  0  0
    3.3523   -0.2854    0.0000 C   0  0  0  0  0  0  0  0  0  0  0  0
    3.3523   -1.1104    0.0000 C   0  0  0  0  0  0  0  0  0  0  0  0
    2.6378   -1.5229    0.0000 C   0  0  0  0  0  0  0  0  0  0  0  0
    1.9233   -1.1104    0.0000 C   0  0  0  0  0  0  0  0  0  0  0  0
  1  2  1  0
  2  3  2  0
  3  4  1  0
  4  5  2  0
  5  6  1  0
  6  7  2  0
  2  7  1  0
  6  8  1  0
  8  9  2  0
  9 10  1  0
 10 11  2  0
 11 12  1  0
 12 13  2  0
  8 13  1  0
 13 14  1  0
 14 15  2  0
 14 16  1  0
 16 17  1  0
 17 18  1  0
 18 19  1  0
 19 20  2  0
 20 21  1  0
 21 22  1  0
 22 23  2  0
 23 24  1  0
 24 25  2  0
 25 26  1  0
 26 27  2  0
 19 27  1  0
 22 27  1  0
M  END
>  <pIC50>  (323) 
3.39

>  <chembl_id>  (323) 
CHEMBL456121

>  <canonical_smiles>  (323) 
Cc1cccc(c1)c2ccccc2C(=O)NCCc3c[nH]c4ccccc34

$$$$
CHEMBL456143
     RDKit          2D

 28 32  0  0  0  0  0  0  0  0999 V2000
    4.5967    5.2187    0.0000 C   0  0  0  0  0  0  0  0  0  0  0  0
    4.8517    4.4341    0.0000 C   0  0  0  0  0  0  0  0  0  0  0  0
    5.6586    4.2626    0.0000 C   0  0  0  0  0  0  0  0  0  0  0  0
    5.9136    3.4780    0.0000 C   0  0  0  0  0  0  0  0  0  0  0  0
    5.3615    2.8649    0.0000 C   0  0  0  0  0  0  0  0  0  0  0  0
    4.5546    3.0364    0.0000 C   0  0  0  0  0  0  0  0  0  0  0  0
    4.2996    3.8210    0.0000 C   0  0  0  0  0  0  0  0  0  0  0  0
    5.6165    2.0803    0.0000 C   0  0  0  0  0  0  0  0  0  0  0  0
    6.4235    1.9087    0.0000 C   0  0  0  0  0  0  0  0  0  0  0  0
    6.6784    1.1241    0.0000 C   0  0  0  0  0  0  0  0  0  0  0  0
    6.1264    0.5110    0.0000 C   0  0  0  0  0  0  0  0  0  0  0  0
    5.3194    0.6825    0.0000 C   0  0  0  0  0  0  0  0  0  0  0  0
    5.0645    1.4672    0.0000 C   0  0  0  0  0  0  0  0  0  0  0  0
    4.7674    0.0694    0.0000 C   0  0  0  0  0  0  0  0  0  0  0  0
    5.0223   -0.7152    0.0000 O   0  0  0  0  0  0  0  0  0  0  0  0
    3.9604    0.2410    0.0000 N   0  0  0  0  0  0  0  0  0  0  0  0
    3.7054    1.0256    0.0000 C   0  0  0  0  0  0  0  0  0  0  0  0
    2.8985    1.1971    0.0000 C   0  0  0  0  0  0  0  0  0  0  0  0
    2.3464    0.5840    0.0000 C   0  0  0  0  0  0  0  0  0  0  0  0
    2.6014   -0.2006    0.0000 C   0  0  0  0  0  0  0  0  0  0  0  0
    3.4084   -0.3721    0.0000 C   0  0  0  0  0  0  0  0  0  0  0  0
    1.9339   -0.6855    0.0000 N   0  0  0  0  0  0  0  0  0  0  0  0
    1.2665   -0.2006    0.0000 C   0  0  0  0  0  0  0  0  0  0  0  0
    0.4595   -0.3721    0.0000 C   0  0  0  0  0  0  0  0  0  0  0  0
   -0.0925    0.2410    0.0000 C   0  0  0  0  0  0  0  0  0  0  0  0
    0.1624    1.0256    0.0000 C   0  0  0  0  0  0  0  0  0  0  0  0
    0.9694    1.1971    0.0000 C   0  0  0  0  0  0  0  0  0  0  0  0
    1.5214    0.5840    0.0000 C   0  0  0  0  0  0  0  0  0  0  0  0
  1  2  1  0
  2  3  2  0
  3  4  1  0
  4  5  2  0
  5  6  1  0
  6  7  2  0
  2  7  1  0
  5  8  1  0
  8  9  2  0
  9 10  1  0
 10 11  2  0
 11 12  1  0
 12 13  2  0
  8 13  1  0
 12 14  1  0
 14 15  2  0
 14 16  1  0
 16 17  1  0
 17 18  1  0
 18 19  1  0
 19 20  2  0
 20 21  1  0
 16 21  1  0
 20 22  1  0
 22 23  1  0
 23 24  2  0
 24 25  1  0
 25 26  2  0
 26 27  1  0
 27 28  2  0
 19 28  1  0
 23 28  1  0
M  END
>  <pIC50>  (324) 
3.33

>  <chembl_id>  (324) 
CHEMBL456143

>  <canonical_smiles>  (324) 
Cc1ccc(cc1)c2cccc(c2)C(=O)N3CCc4c(C3)[nH]c5ccccc45

$$$$
CHEMBL456378
     RDKit          2D

 28 32  0  0  0  0  0  0  0  0999 V2000
    7.0176    4.7042    0.0000 F   0  0  0  0  0  0  0  0  0  0  0  0
    7.2726    3.9195    0.0000 C   0  0  0  0  0  0  0  0  0  0  0  0
    8.0796    3.7480    0.0000 C   0  0  0  0  0  0  0  0  0  0  0  0
    8.3345    2.9634    0.0000 C   0  0  0  0  0  0  0  0  0  0  0  0
    7.7825    2.3503    0.0000 C   0  0  0  0  0  0  0  0  0  0  0  0
    6.9755    2.5218    0.0000 C   0  0  0  0  0  0  0  0  0  0  0  0
    6.7206    3.3064    0.0000 C   0  0  0  0  0  0  0  0  0  0  0  0
    6.4235    1.9087    0.0000 C   0  0  0  0  0  0  0  0  0  0  0  0
    6.6784    1.1241    0.0000 C   0  0  0  0  0  0  0  0  0  0  0  0
    6.1264    0.5110    0.0000 C   0  0  0  0  0  0  0  0  0  0  0  0
    5.3194    0.6825    0.0000 C   0  0  0  0  0  0  0  0  0  0  0  0
    5.0645    1.4672    0.0000 C   0  0  0  0  0  0  0  0  0  0  0  0
    5.6165    2.0803    0.0000 C   0  0  0  0  0  0  0  0  0  0  0  0
    4.7674    0.0694    0.0000 C   0  0  0  0  0  0  0  0  0  0  0  0
    5.0223   -0.7152    0.0000 O   0  0  0  0  0  0  0  0  0  0  0  0
    3.9604    0.2410    0.0000 N   0  0  0  0  0  0  0  0  0  0  0  0
    3.7054    1.0256    0.0000 C   0  0  0  0  0  0  0  0  0  0  0  0
    2.8985    1.1971    0.0000 C   0  0  0  0  0  0  0  0  0  0  0  0
    2.3464    0.5840    0.0000 C   0  0  0  0  0  0  0  0  0  0  0  0
    2.6014   -0.2006    0.0000 C   0  0  0  0  0  0  0  0  0  0  0  0
    3.4084   -0.3721    0.0000 C   0  0  0  0  0  0  0  0  0  0  0  0
    1.9339   -0.6855    0.0000 N   0  0  0  0  0  0  0  0  0  0  0  0
    1.2665   -0.2006    0.0000 C   0  0  0  0  0  0  0  0  0  0  0  0
    0.4595   -0.3721    0.0000 C   0  0  0  0  0  0  0  0  0  0  0  0
   -0.0925    0.2410    0.0000 C   0  0  0  0  0  0  0  0  0  0  0  0
    0.1624    1.0256    0.0000 C   0  0  0  0  0  0  0  0  0  0  0  0
    0.9694    1.1971    0.0000 C   0  0  0  0  0  0  0  0  0  0  0  0
    1.5214    0.5840    0.0000 C   0  0  0  0  0  0  0  0  0  0  0  0
  1  2  1  0
  2  3  2  0
  3  4  1  0
  4  5  2  0
  5  6  1  0
  6  7  2  0
  2  7  1  0
  6  8  1  0
  8  9  2  0
  9 10  1  0
 10 11  2  0
 11 12  1  0
 12 13  2  0
  8 13  1  0
 11 14  1  0
 14 15  2  0
 14 16  1  0
 16 17  1  0
 17 18  1  0
 18 19  1  0
 19 20  2  0
 20 21  1  0
 16 21  1  0
 20 22  1  0
 22 23  1  0
 23 24  2  0
 24 25  1  0
 25 26  2  0
 26 27  1  0
 27 28  2  0
 19 28  1  0
 23 28  1  0
M  END
>  <pIC50>  (325) 
3.53

>  <chembl_id>  (325) 
CHEMBL456378

>  <canonical_smiles>  (325) 
Fc1cccc(c1)c2ccc(cc2)C(=O)N3CCc4c(C3)[nH]c5ccccc45

$$$$
CHEMBL456584
     RDKit          2D

 28 32  0  0  0  0  0  0  0  0999 V2000
    5.9136    3.4780    0.0000 F   0  0  0  0  0  0  0  0  0  0  0  0
    6.7206    3.3064    0.0000 C   0  0  0  0  0  0  0  0  0  0  0  0
    7.2726    3.9195    0.0000 C   0  0  0  0  0  0  0  0  0  0  0  0
    8.0796    3.7480    0.0000 C   0  0  0  0  0  0  0  0  0  0  0  0
    8.3345    2.9634    0.0000 C   0  0  0  0  0  0  0  0  0  0  0  0
    7.7825    2.3503    0.0000 C   0  0  0  0  0  0  0  0  0  0  0  0
    6.9755    2.5218    0.0000 C   0  0  0  0  0  0  0  0  0  0  0  0
    6.4235    1.9087    0.0000 C   0  0  0  0  0  0  0  0  0  0  0  0
    6.6784    1.1241    0.0000 C   0  0  0  0  0  0  0  0  0  0  0  0
    6.1264    0.5110    0.0000 C   0  0  0  0  0  0  0  0  0  0  0  0
    5.3194    0.6825    0.0000 C   0  0  0  0  0  0  0  0  0  0  0  0
    5.0645    1.4672    0.0000 C   0  0  0  0  0  0  0  0  0  0  0  0
    5.6165    2.0803    0.0000 C   0  0  0  0  0  0  0  0  0  0  0  0
    4.7674    0.0694    0.0000 C   0  0  0  0  0  0  0  0  0  0  0  0
    5.0223   -0.7152    0.0000 O   0  0  0  0  0  0  0  0  0  0  0  0
    3.9604    0.2410    0.0000 N   0  0  0  0  0  0  0  0  0  0  0  0
    3.7054    1.0256    0.0000 C   0  0  0  0  0  0  0  0  0  0  0  0
    2.8985    1.1971    0.0000 C   0  0  0  0  0  0  0  0  0  0  0  0
    2.3464    0.5840    0.0000 C   0  0  0  0  0  0  0  0  0  0  0  0
    2.6014   -0.2006    0.0000 C   0  0  0  0  0  0  0  0  0  0  0  0
    3.4084   -0.3721    0.0000 C   0  0  0  0  0  0  0  0  0  0  0  0
    1.9339   -0.6855    0.0000 N   0  0  0  0  0  0  0  0  0  0  0  0
    1.2665   -0.2006    0.0000 C   0  0  0  0  0  0  0  0  0  0  0  0
    0.4595   -0.3721    0.0000 C   0  0  0  0  0  0  0  0  0  0  0  0
   -0.0925    0.2410    0.0000 C   0  0  0  0  0  0  0  0  0  0  0  0
    0.1624    1.0256    0.0000 C   0  0  0  0  0  0  0  0  0  0  0  0
    0.9694    1.1971    0.0000 C   0  0  0  0  0  0  0  0  0  0  0  0
    1.5214    0.5840    0.0000 C   0  0  0  0  0  0  0  0  0  0  0  0
  1  2  1  0
  2  3  2  0
  3  4  1  0
  4  5  2  0
  5  6  1  0
  6  7  2  0
  2  7  1  0
  7  8  1  0
  8  9  2  0
  9 10  1  0
 10 11  2  0
 11 12  1  0
 12 13  2  0
  8 13  1  0
 11 14  1  0
 14 15  2  0
 14 16  1  0
 16 17  1  0
 17 18  1  0
 18 19  1  0
 19 20  2  0
 20 21  1  0
 16 21  1  0
 20 22  1  0
 22 23  1  0
 23 24  2  0
 24 25  1  0
 25 26  2  0
 26 27  1  0
 27 28  2  0
 19 28  1  0
 23 28  1  0
M  END
>  <pIC50>  (326) 
3.51

>  <chembl_id>  (326) 
CHEMBL456584

>  <canonical_smiles>  (326) 
Fc1ccccc1c2ccc(cc2)C(=O)N3CCc4c(C3)[nH]c5ccccc45

$$$$
CHEMBL456759
     RDKit          2D

 28 31  0  0  0  0  0  0  0  0999 V2000
    1.7751   -6.3432    0.0000 C   0  0  0  0  0  0  0  0  0  0  0  0
    2.0300   -5.5585    0.0000 O   0  0  0  0  0  0  0  0  0  0  0  0
    2.8370   -5.3870    0.0000 C   0  0  0  0  0  0  0  0  0  0  0  0
    3.3890   -6.0001    0.0000 C   0  0  0  0  0  0  0  0  0  0  0  0
    4.1960   -5.8286    0.0000 C   0  0  0  0  0  0  0  0  0  0  0  0
    4.4509   -5.0439    0.0000 C   0  0  0  0  0  0  0  0  0  0  0  0
    3.8989   -4.4309    0.0000 C   0  0  0  0  0  0  0  0  0  0  0  0
    3.0919   -4.6024    0.0000 C   0  0  0  0  0  0  0  0  0  0  0  0
    4.1538   -3.6462    0.0000 C   0  0  0  0  0  0  0  0  0  0  0  0
    4.9608   -3.4747    0.0000 C   0  0  0  0  0  0  0  0  0  0  0  0
    5.2157   -2.6901    0.0000 C   0  0  0  0  0  0  0  0  0  0  0  0
    4.6637   -2.0770    0.0000 C   0  0  0  0  0  0  0  0  0  0  0  0
    3.8567   -2.2485    0.0000 C   0  0  0  0  0  0  0  0  0  0  0  0
    3.6018   -3.0331    0.0000 C   0  0  0  0  0  0  0  0  0  0  0  0
    2.7948   -3.2047    0.0000 C   0  0  0  0  0  0  0  0  0  0  0  0
    2.5399   -3.9893    0.0000 O   0  0  0  0  0  0  0  0  0  0  0  0
    2.2428   -2.5916    0.0000 N   0  0  0  0  0  0  0  0  0  0  0  0
    1.4358   -2.7631    0.0000 C   0  0  0  0  0  0  0  0  0  0  0  0
    0.8838   -2.1500    0.0000 C   0  0  0  0  0  0  0  0  0  0  0  0
    1.1387   -1.3654    0.0000 C   0  0  0  0  0  0  0  0  0  0  0  0
    0.6538   -0.6979    0.0000 C   0  0  0  0  0  0  0  0  0  0  0  0
    1.1387   -0.0305    0.0000 N   0  0  0  0  0  0  0  0  0  0  0  0
    1.9233   -0.2854    0.0000 C   0  0  0  0  0  0  0  0  0  0  0  0
    2.6378    0.1271    0.0000 C   0  0  0  0  0  0  0  0  0  0  0  0
    3.3523   -0.2854    0.0000 C   0  0  0  0  0  0  0  0  0  0  0  0
    3.3523   -1.1104    0.0000 C   0  0  0  0  0  0  0  0  0  0  0  0
    2.6378   -1.5229    0.0000 C   0  0  0  0  0  0  0  0  0  0  0  0
    1.9233   -1.1104    0.0000 C   0  0  0  0  0  0  0  0  0  0  0  0
  1  2  1  0
  2  3  1  0
  3  4  2  0
  4  5  1  0
  5  6  2  0
  6  7  1  0
  7  8  2  0
  3  8  1  0
  7  9  1  0
  9 10  2  0
 10 11  1  0
 11 12  2  0
 12 13  1  0
 13 14  2  0
  9 14  1  0
 14 15  1  0
 15 16  2  0
 15 17  1  0
 17 18  1  0
 18 19  1  0
 19 20  1  0
 20 21  2  0
 21 22  1  0
 22 23  1  0
 23 24  2  0
 24 25  1  0
 25 26  2  0
 26 27  1  0
 27 28  2  0
 20 28  1  0
 23 28  1  0
M  END
>  <pIC50>  (327) 
3.03

>  <chembl_id>  (327) 
CHEMBL456759

>  <canonical_smiles>  (327) 
COc1cccc(c1)c2ccccc2C(=O)NCCc3c[nH]c4ccccc34

$$$$
CHEMBL456760
     RDKit          2D

 28 31  0  0  0  0  0  0  0  0999 V2000
   -3.4060   -3.7923    0.0000 C   0  0  0  0  0  0  0  0  0  0  0  0
   -2.5990   -3.6207    0.0000 O   0  0  0  0  0  0  0  0  0  0  0  0
   -2.0470   -4.2338    0.0000 C   0  0  0  0  0  0  0  0  0  0  0  0
   -2.3020   -5.0184    0.0000 C   0  0  0  0  0  0  0  0  0  0  0  0
   -1.7499   -5.6315    0.0000 C   0  0  0  0  0  0  0  0  0  0  0  0
   -0.9429   -5.4600    0.0000 C   0  0  0  0  0  0  0  0  0  0  0  0
   -0.6880   -4.6754    0.0000 C   0  0  0  0  0  0  0  0  0  0  0  0
   -1.2400   -4.0623    0.0000 C   0  0  0  0  0  0  0  0  0  0  0  0
   -0.9851   -3.2777    0.0000 C   0  0  0  0  0  0  0  0  0  0  0  0
   -1.5371   -2.6646    0.0000 C   0  0  0  0  0  0  0  0  0  0  0  0
   -1.2822   -1.8800    0.0000 C   0  0  0  0  0  0  0  0  0  0  0  0
   -0.4752   -1.7084    0.0000 C   0  0  0  0  0  0  0  0  0  0  0  0
    0.0768   -2.3215    0.0000 C   0  0  0  0  0  0  0  0  0  0  0  0
   -0.1781   -3.1062    0.0000 C   0  0  0  0  0  0  0  0  0  0  0  0
    0.3739   -3.7192    0.0000 C   0  0  0  0  0  0  0  0  0  0  0  0
    0.1190   -4.5039    0.0000 O   0  0  0  0  0  0  0  0  0  0  0  0
    1.1809   -3.5477    0.0000 N   0  0  0  0  0  0  0  0  0  0  0  0
    1.4358   -2.7631    0.0000 C   0  0  0  0  0  0  0  0  0  0  0  0
    0.8838   -2.1500    0.0000 C   0  0  0  0  0  0  0  0  0  0  0  0
    1.1387   -1.3654    0.0000 C   0  0  0  0  0  0  0  0  0  0  0  0
    0.6538   -0.6979    0.0000 C   0  0  0  0  0  0  0  0  0  0  0  0
    1.1387   -0.0305    0.0000 N   0  0  0  0  0  0  0  0  0  0  0  0
    1.9233   -0.2854    0.0000 C   0  0  0  0  0  0  0  0  0  0  0  0
    2.6378    0.1271    0.0000 C   0  0  0  0  0  0  0  0  0  0  0  0
    3.3523   -0.2854    0.0000 C   0  0  0  0  0  0  0  0  0  0  0  0
    3.3523   -1.1104    0.0000 C   0  0  0  0  0  0  0  0  0  0  0  0
    2.6378   -1.5229    0.0000 C   0  0  0  0  0  0  0  0  0  0  0  0
    1.9233   -1.1104    0.0000 C   0  0  0  0  0  0  0  0  0  0  0  0
  1  2  1  0
  2  3  1  0
  3  4  2  0
  4  5  1  0
  5  6  2  0
  6  7  1  0
  7  8  2  0
  3  8  1  0
  8  9  1  0
  9 10  2  0
 10 11  1  0
 11 12  2  0
 12 13  1  0
 13 14  2  0
  9 14  1  0
 14 15  1  0
 15 16  2  0
 15 17  1  0
 17 18  1  0
 18 19  1  0
 19 20  1  0
 20 21  2  0
 21 22  1  0
 22 23  1  0
 23 24  2  0
 24 25  1  0
 25 26  2  0
 26 27  1  0
 27 28  2  0
 20 28  1  0
 23 28  1  0
M  END
>  <pIC50>  (328) 
3.43

>  <chembl_id>  (328) 
CHEMBL456760

>  <canonical_smiles>  (328) 
COc1ccccc1c2ccccc2C(=O)NCCc3c[nH]c4ccccc34

$$$$
CHEMBL456796
     RDKit          2D

 29 33  0  0  0  0  0  0  0  0999 V2000
    3.2377    4.7772    0.0000 C   0  0  0  0  0  0  0  0  0  0  0  0
    3.4927    3.9926    0.0000 O   0  0  0  0  0  0  0  0  0  0  0  0
    4.2996    3.8210    0.0000 C   0  0  0  0  0  0  0  0  0  0  0  0
    4.8517    4.4341    0.0000 C   0  0  0  0  0  0  0  0  0  0  0  0
    5.6586    4.2626    0.0000 C   0  0  0  0  0  0  0  0  0  0  0  0
    5.9136    3.4780    0.0000 C   0  0  0  0  0  0  0  0  0  0  0  0
    5.3615    2.8649    0.0000 C   0  0  0  0  0  0  0  0  0  0  0  0
    4.5546    3.0364    0.0000 C   0  0  0  0  0  0  0  0  0  0  0  0
    5.6165    2.0803    0.0000 C   0  0  0  0  0  0  0  0  0  0  0  0
    6.4235    1.9087    0.0000 C   0  0  0  0  0  0  0  0  0  0  0  0
    6.6784    1.1241    0.0000 C   0  0  0  0  0  0  0  0  0  0  0  0
    6.1264    0.5110    0.0000 C   0  0  0  0  0  0  0  0  0  0  0  0
    5.3194    0.6825    0.0000 C   0  0  0  0  0  0  0  0  0  0  0  0
    5.0645    1.4672    0.0000 C   0  0  0  0  0  0  0  0  0  0  0  0
    4.7674    0.0694    0.0000 C   0  0  0  0  0  0  0  0  0  0  0  0
    5.0223   -0.7152    0.0000 O   0  0  0  0  0  0  0  0  0  0  0  0
    3.9604    0.2410    0.0000 N   0  0  0  0  0  0  0  0  0  0  0  0
    3.7054    1.0256    0.0000 C   0  0  0  0  0  0  0  0  0  0  0  0
    2.8985    1.1971    0.0000 C   0  0  0  0  0  0  0  0  0  0  0  0
    2.3464    0.5840    0.0000 C   0  0  0  0  0  0  0  0  0  0  0  0
    2.6014   -0.2006    0.0000 C   0  0  0  0  0  0  0  0  0  0  0  0
    3.4084   -0.3721    0.0000 C   0  0  0  0  0  0  0  0  0  0  0  0
    1.9339   -0.6855    0.0000 N   0  0  0  0  0  0  0  0  0  0  0  0
    1.2665   -0.2006    0.0000 C   0  0  0  0  0  0  0  0  0  0  0  0
    0.4595   -0.3721    0.0000 C   0  0  0  0  0  0  0  0  0  0  0  0
   -0.0925    0.2410    0.0000 C   0  0  0  0  0  0  0  0  0  0  0  0
    0.1624    1.0256    0.0000 C   0  0  0  0  0  0  0  0  0  0  0  0
    0.9694    1.1971    0.0000 C   0  0  0  0  0  0  0  0  0  0  0  0
    1.5214    0.5840    0.0000 C   0  0  0  0  0  0  0  0  0  0  0  0
  1  2  1  0
  2  3  1  0
  3  4  2  0
  4  5  1  0
  5  6  2  0
  6  7  1  0
  7  8  2  0
  3  8  1  0
  7  9  1  0
  9 10  2  0
 10 11  1  0
 11 12  2  0
 12 13  1  0
 13 14  2  0
  9 14  1  0
 13 15  1  0
 15 16  2  0
 15 17  1  0
 17 18  1  0
 18 19  1  0
 19 20  1  0
 20 21  2  0
 21 22  1  0
 17 22  1  0
 21 23  1  0
 23 24  1  0
 24 25  2  0
 25 26  1  0
 26 27  2  0
 27 28  1  0
 28 29  2  0
 20 29  1  0
 24 29  1  0
M  END
>  <pIC50>  (329) 
3.44

>  <chembl_id>  (329) 
CHEMBL456796

>  <canonical_smiles>  (329) 
COc1cccc(c1)c2cccc(c2)C(=O)N3CCc4c(C3)[nH]c5ccccc45

$$$$
CHEMBL456797
     RDKit          2D

 29 33  0  0  0  0  0  0  0  0999 V2000
    3.1956    2.5948    0.0000 C   0  0  0  0  0  0  0  0  0  0  0  0
    4.0025    2.4233    0.0000 O   0  0  0  0  0  0  0  0  0  0  0  0
    4.5546    3.0364    0.0000 C   0  0  0  0  0  0  0  0  0  0  0  0
    4.2996    3.8210    0.0000 C   0  0  0  0  0  0  0  0  0  0  0  0
    4.8517    4.4341    0.0000 C   0  0  0  0  0  0  0  0  0  0  0  0
    5.6586    4.2626    0.0000 C   0  0  0  0  0  0  0  0  0  0  0  0
    5.9136    3.4780    0.0000 C   0  0  0  0  0  0  0  0  0  0  0  0
    5.3615    2.8649    0.0000 C   0  0  0  0  0  0  0  0  0  0  0  0
    5.6165    2.0803    0.0000 C   0  0  0  0  0  0  0  0  0  0  0  0
    6.4235    1.9087    0.0000 C   0  0  0  0  0  0  0  0  0  0  0  0
    6.6784    1.1241    0.0000 C   0  0  0  0  0  0  0  0  0  0  0  0
    6.1264    0.5110    0.0000 C   0  0  0  0  0  0  0  0  0  0  0  0
    5.3194    0.6825    0.0000 C   0  0  0  0  0  0  0  0  0  0  0  0
    5.0645    1.4672    0.0000 C   0  0  0  0  0  0  0  0  0  0  0  0
    4.7674    0.0694    0.0000 C   0  0  0  0  0  0  0  0  0  0  0  0
    5.0223   -0.7152    0.0000 O   0  0  0  0  0  0  0  0  0  0  0  0
    3.9604    0.2410    0.0000 N   0  0  0  0  0  0  0  0  0  0  0  0
    3.7054    1.0256    0.0000 C   0  0  0  0  0  0  0  0  0  0  0  0
    2.8985    1.1971    0.0000 C   0  0  0  0  0  0  0  0  0  0  0  0
    2.3464    0.5840    0.0000 C   0  0  0  0  0  0  0  0  0  0  0  0
    2.6014   -0.2006    0.0000 C   0  0  0  0  0  0  0  0  0  0  0  0
    3.4084   -0.3721    0.0000 C   0  0  0  0  0  0  0  0  0  0  0  0
    1.9339   -0.6855    0.0000 N   0  0  0  0  0  0  0  0  0  0  0  0
    1.2665   -0.2006    0.0000 C   0  0  0  0  0  0  0  0  0  0  0  0
    0.4595   -0.3721    0.0000 C   0  0  0  0  0  0  0  0  0  0  0  0
   -0.0925    0.2410    0.0000 C   0  0  0  0  0  0  0  0  0  0  0  0
    0.1624    1.0256    0.0000 C   0  0  0  0  0  0  0  0  0  0  0  0
    0.9694    1.1971    0.0000 C   0  0  0  0  0  0  0  0  0  0  0  0
    1.5214    0.5840    0.0000 C   0  0  0  0  0  0  0  0  0  0  0  0
  1  2  1  0
  2  3  1  0
  3  4  2  0
  4  5  1  0
  5  6  2  0
  6  7  1  0
  7  8  2  0
  3  8  1  0
  8  9  1  0
  9 10  2  0
 10 11  1  0
 11 12  2  0
 12 13  1  0
 13 14  2  0
  9 14  1  0
 13 15  1  0
 15 16  2  0
 15 17  1  0
 17 18  1  0
 18 19  1  0
 19 20  1  0
 20 21  2  0
 21 22  1  0
 17 22  1  0
 21 23  1  0
 23 24  1  0
 24 25  2  0
 25 26  1  0
 26 27  2  0
 27 28  1  0
 28 29  2  0
 20 29  1  0
 24 29  1  0
M  END
>  <pIC50>  (330) 
2.96

>  <chembl_id>  (330) 
CHEMBL456797

>  <canonical_smiles>  (330) 
COc1ccccc1c2cccc(c2)C(=O)N3CCc4c(C3)[nH]c5ccccc45

$$$$
CHEMBL456964
     RDKit          2D

 27 30  0  0  0  0  0  0  0  0999 V2000
    1.4358   -2.7631    0.0000 F   0  0  0  0  0  0  0  0  0  0  0  0
    1.1809   -3.5477    0.0000 C   0  0  0  0  0  0  0  0  0  0  0  0
    1.7329   -4.1608    0.0000 C   0  0  0  0  0  0  0  0  0  0  0  0
    1.4780   -4.9454    0.0000 C   0  0  0  0  0  0  0  0  0  0  0  0
    0.6710   -5.1170    0.0000 C   0  0  0  0  0  0  0  0  0  0  0  0
    0.1190   -4.5039    0.0000 C   0  0  0  0  0  0  0  0  0  0  0  0
    0.3739   -3.7192    0.0000 C   0  0  0  0  0  0  0  0  0  0  0  0
   -0.6880   -4.6754    0.0000 C   0  0  0  0  0  0  0  0  0  0  0  0
   -0.9429   -5.4600    0.0000 C   0  0  0  0  0  0  0  0  0  0  0  0
   -1.7499   -5.6315    0.0000 C   0  0  0  0  0  0  0  0  0  0  0  0
   -2.3020   -5.0184    0.0000 C   0  0  0  0  0  0  0  0  0  0  0  0
   -2.0470   -4.2338    0.0000 C   0  0  0  0  0  0  0  0  0  0  0  0
   -1.2400   -4.0623    0.0000 C   0  0  0  0  0  0  0  0  0  0  0  0
   -0.9851   -3.2777    0.0000 C   0  0  0  0  0  0  0  0  0  0  0  0
   -1.5371   -2.6646    0.0000 O   0  0  0  0  0  0  0  0  0  0  0  0
   -0.1781   -3.1062    0.0000 N   0  0  0  0  0  0  0  0  0  0  0  0
    0.0768   -2.3215    0.0000 C   0  0  0  0  0  0  0  0  0  0  0  0
    0.8838   -2.1500    0.0000 C   0  0  0  0  0  0  0  0  0  0  0  0
    1.1387   -1.3654    0.0000 C   0  0  0  0  0  0  0  0  0  0  0  0
    0.6538   -0.6979    0.0000 C   0  0  0  0  0  0  0  0  0  0  0  0
    1.1387   -0.0305    0.0000 N   0  0  0  0  0  0  0  0  0  0  0  0
    1.9233   -0.2854    0.0000 C   0  0  0  0  0  0  0  0  0  0  0  0
    2.6378    0.1271    0.0000 C   0  0  0  0  0  0  0  0  0  0  0  0
    3.3523   -0.2854    0.0000 C   0  0  0  0  0  0  0  0  0  0  0  0
    3.3523   -1.1104    0.0000 C   0  0  0  0  0  0  0  0  0  0  0  0
    2.6378   -1.5229    0.0000 C   0  0  0  0  0  0  0  0  0  0  0  0
    1.9233   -1.1104    0.0000 C   0  0  0  0  0  0  0  0  0  0  0  0
  1  2  1  0
  2  3  2  0
  3  4  1  0
  4  5  2  0
  5  6  1  0
  6  7  2  0
  2  7  1  0
  6  8  1  0
  8  9  2  0
  9 10  1  0
 10 11  2  0
 11 12  1  0
 12 13  2  0
  8 13  1  0
 13 14  1  0
 14 15  2  0
 14 16  1  0
 16 17  1  0
 17 18  1  0
 18 19  1  0
 19 20  2  0
 20 21  1  0
 21 22  1  0
 22 23  2  0
 23 24  1  0
 24 25  2  0
 25 26  1  0
 26 27  2  0
 19 27  1  0
 22 27  1  0
M  END
>  <pIC50>  (331) 
3.38

>  <chembl_id>  (331) 
CHEMBL456964

>  <canonical_smiles>  (331) 
Fc1cccc(c1)c2ccccc2C(=O)NCCc3c[nH]c4ccccc34

$$$$
CHEMBL456965
     RDKit          2D

 28 31  0  0  0  0  0  0  0  0999 V2000
   -1.4528   -7.0293    0.0000 C   0  0  0  0  0  0  0  0  0  0  0  0
   -2.0049   -6.4162    0.0000 O   0  0  0  0  0  0  0  0  0  0  0  0
   -1.7499   -5.6315    0.0000 C   0  0  0  0  0  0  0  0  0  0  0  0
   -2.3020   -5.0184    0.0000 C   0  0  0  0  0  0  0  0  0  0  0  0
   -2.0470   -4.2338    0.0000 C   0  0  0  0  0  0  0  0  0  0  0  0
   -1.2400   -4.0623    0.0000 C   0  0  0  0  0  0  0  0  0  0  0  0
   -0.6880   -4.6754    0.0000 C   0  0  0  0  0  0  0  0  0  0  0  0
   -0.9429   -5.4600    0.0000 C   0  0  0  0  0  0  0  0  0  0  0  0
   -0.9851   -3.2777    0.0000 C   0  0  0  0  0  0  0  0  0  0  0  0
   -1.5371   -2.6646    0.0000 C   0  0  0  0  0  0  0  0  0  0  0  0
   -1.2822   -1.8800    0.0000 C   0  0  0  0  0  0  0  0  0  0  0  0
   -0.4752   -1.7084    0.0000 C   0  0  0  0  0  0  0  0  0  0  0  0
    0.0768   -2.3215    0.0000 C   0  0  0  0  0  0  0  0  0  0  0  0
   -0.1781   -3.1062    0.0000 C   0  0  0  0  0  0  0  0  0  0  0  0
    0.3739   -3.7192    0.0000 C   0  0  0  0  0  0  0  0  0  0  0  0
    0.1190   -4.5039    0.0000 O   0  0  0  0  0  0  0  0  0  0  0  0
    1.1809   -3.5477    0.0000 N   0  0  0  0  0  0  0  0  0  0  0  0
    1.4358   -2.7631    0.0000 C   0  0  0  0  0  0  0  0  0  0  0  0
    0.8838   -2.1500    0.0000 C   0  0  0  0  0  0  0  0  0  0  0  0
    1.1387   -1.3654    0.0000 C   0  0  0  0  0  0  0  0  0  0  0  0
    0.6538   -0.6979    0.0000 C   0  0  0  0  0  0  0  0  0  0  0  0
    1.1387   -0.0305    0.0000 N   0  0  0  0  0  0  0  0  0  0  0  0
    1.9233   -0.2854    0.0000 C   0  0  0  0  0  0  0  0  0  0  0  0
    2.6378    0.1271    0.0000 C   0  0  0  0  0  0  0  0  0  0  0  0
    3.3523   -0.2854    0.0000 C   0  0  0  0  0  0  0  0  0  0  0  0
    3.3523   -1.1104    0.0000 C   0  0  0  0  0  0  0  0  0  0  0  0
    2.6378   -1.5229    0.0000 C   0  0  0  0  0  0  0  0  0  0  0  0
    1.9233   -1.1104    0.0000 C   0  0  0  0  0  0  0  0  0  0  0  0
  1  2  1  0
  2  3  1  0
  3  4  2  0
  4  5  1  0
  5  6  2  0
  6  7  1  0
  7  8  2  0
  3  8  1  0
  6  9  1  0
  9 10  2  0
 10 11  1  0
 11 12  2  0
 12 13  1  0
 13 14  2  0
  9 14  1  0
 14 15  1  0
 15 16  2  0
 15 17  1  0
 17 18  1  0
 18 19  1  0
 19 20  1  0
 20 21  2  0
 21 22  1  0
 22 23  1  0
 23 24  2  0
 24 25  1  0
 25 26  2  0
 26 27  1  0
 27 28  2  0
 20 28  1  0
 23 28  1  0
M  END
>  <pIC50>  (332) 
3.04

>  <chembl_id>  (332) 
CHEMBL456965

>  <canonical_smiles>  (332) 
COc1ccc(cc1)c2ccccc2C(=O)NCCc3c[nH]c4ccccc34

$$$$
CHEMBL456995
     RDKit          2D

 28 32  0  0  0  0  0  0  0  0999 V2000
    8.6316    4.3611    0.0000 F   0  0  0  0  0  0  0  0  0  0  0  0
    8.0796    3.7480    0.0000 C   0  0  0  0  0  0  0  0  0  0  0  0
    8.3345    2.9634    0.0000 C   0  0  0  0  0  0  0  0  0  0  0  0
    7.7825    2.3503    0.0000 C   0  0  0  0  0  0  0  0  0  0  0  0
    6.9755    2.5218    0.0000 C   0  0  0  0  0  0  0  0  0  0  0  0
    6.7206    3.3064    0.0000 C   0  0  0  0  0  0  0  0  0  0  0  0
    7.2726    3.9195    0.0000 C   0  0  0  0  0  0  0  0  0  0  0  0
    6.4235    1.9087    0.0000 C   0  0  0  0  0  0  0  0  0  0  0  0
    6.6784    1.1241    0.0000 C   0  0  0  0  0  0  0  0  0  0  0  0
    6.1264    0.5110    0.0000 C   0  0  0  0  0  0  0  0  0  0  0  0
    5.3194    0.6825    0.0000 C   0  0  0  0  0  0  0  0  0  0  0  0
    5.0645    1.4672    0.0000 C   0  0  0  0  0  0  0  0  0  0  0  0
    5.6165    2.0803    0.0000 C   0  0  0  0  0  0  0  0  0  0  0  0
    4.7674    0.0694    0.0000 C   0  0  0  0  0  0  0  0  0  0  0  0
    5.0223   -0.7152    0.0000 O   0  0  0  0  0  0  0  0  0  0  0  0
    3.9604    0.2410    0.0000 N   0  0  0  0  0  0  0  0  0  0  0  0
    3.7054    1.0256    0.0000 C   0  0  0  0  0  0  0  0  0  0  0  0
    2.8985    1.1971    0.0000 C   0  0  0  0  0  0  0  0  0  0  0  0
    2.3464    0.5840    0.0000 C   0  0  0  0  0  0  0  0  0  0  0  0
    2.6014   -0.2006    0.0000 C   0  0  0  0  0  0  0  0  0  0  0  0
    3.4084   -0.3721    0.0000 C   0  0  0  0  0  0  0  0  0  0  0  0
    1.9339   -0.6855    0.0000 N   0  0  0  0  0  0  0  0  0  0  0  0
    1.2665   -0.2006    0.0000 C   0  0  0  0  0  0  0  0  0  0  0  0
    0.4595   -0.3721    0.0000 C   0  0  0  0  0  0  0  0  0  0  0  0
   -0.0925    0.2410    0.0000 C   0  0  0  0  0  0  0  0  0  0  0  0
    0.1624    1.0256    0.0000 C   0  0  0  0  0  0  0  0  0  0  0  0
    0.9694    1.1971    0.0000 C   0  0  0  0  0  0  0  0  0  0  0  0
    1.5214    0.5840    0.0000 C   0  0  0  0  0  0  0  0  0  0  0  0
  1  2  1  0
  2  3  2  0
  3  4  1  0
  4  5  2  0
  5  6  1  0
  6  7  2  0
  2  7  1  0
  5  8  1  0
  8  9  2  0
  9 10  1  0
 10 11  2  0
 11 12  1  0
 12 13  2  0
  8 13  1  0
 11 14  1  0
 14 15  2  0
 14 16  1  0
 16 17  1  0
 17 18  1  0
 18 19  1  0
 19 20  2  0
 20 21  1  0
 16 21  1  0
 20 22  1  0
 22 23  1  0
 23 24  2  0
 24 25  1  0
 25 26  2  0
 26 27  1  0
 27 28  2  0
 19 28  1  0
 23 28  1  0
M  END
>  <pIC50>  (333) 
3.36

>  <chembl_id>  (333) 
CHEMBL456995

>  <canonical_smiles>  (333) 
Fc1ccc(cc1)c2ccc(cc2)C(=O)N3CCc4c(C3)[nH]c5ccccc45

$$$$
CHEMBL457179
     RDKit          2D

 27 30  0  0  0  0  0  0  0  0999 V2000
    0.3739   -3.7192    0.0000 C   0  0  0  0  0  0  0  0  0  0  0  0
    1.1809   -3.5477    0.0000 N   0  0  0  0  0  0  0  0  0  0  0  0
    1.4358   -2.7631    0.0000 C   0  0  0  0  0  0  0  0  0  0  0  0
    0.8838   -2.1500    0.0000 C   0  0  0  0  0  0  0  0  0  0  0  0
    1.1387   -1.3654    0.0000 C   0  0  0  0  0  0  0  0  0  0  0  0
    0.6538   -0.6979    0.0000 C   0  0  0  0  0  0  0  0  0  0  0  0
    1.1387   -0.0305    0.0000 N   0  0  0  0  0  0  0  0  0  0  0  0
    1.9233   -0.2854    0.0000 C   0  0  0  0  0  0  0  0  0  0  0  0
    2.6378    0.1271    0.0000 C   0  0  0  0  0  0  0  0  0  0  0  0
    3.3523   -0.2854    0.0000 C   0  0  0  0  0  0  0  0  0  0  0  0
    3.3523   -1.1104    0.0000 C   0  0  0  0  0  0  0  0  0  0  0  0
    2.6378   -1.5229    0.0000 C   0  0  0  0  0  0  0  0  0  0  0  0
    1.9233   -1.1104    0.0000 C   0  0  0  0  0  0  0  0  0  0  0  0
    1.7329   -4.1608    0.0000 C   0  0  0  0  0  0  0  0  0  0  0  0
    2.5399   -3.9893    0.0000 O   0  0  0  0  0  0  0  0  0  0  0  0
    1.4780   -4.9454    0.0000 C   0  0  0  0  0  0  0  0  0  0  0  0
    2.0300   -5.5585    0.0000 C   0  0  0  0  0  0  0  0  0  0  0  0
    1.7751   -6.3432    0.0000 C   0  0  0  0  0  0  0  0  0  0  0  0
    0.9681   -6.5147    0.0000 C   0  0  0  0  0  0  0  0  0  0  0  0
    0.4161   -5.9016    0.0000 C   0  0  0  0  0  0  0  0  0  0  0  0
    0.6710   -5.1170    0.0000 C   0  0  0  0  0  0  0  0  0  0  0  0
    0.7132   -7.2993    0.0000 C   0  0  0  0  0  0  0  0  0  0  0  0
    1.2652   -7.9124    0.0000 C   0  0  0  0  0  0  0  0  0  0  0  0
    1.0102   -8.6970    0.0000 C   0  0  0  0  0  0  0  0  0  0  0  0
    0.2033   -8.8685    0.0000 N   0  0  0  0  0  0  0  0  0  0  0  0
   -0.3488   -8.2554    0.0000 C   0  0  0  0  0  0  0  0  0  0  0  0
   -0.0938   -7.4708    0.0000 C   0  0  0  0  0  0  0  0  0  0  0  0
  1  2  1  0
  2  3  1  0
  3  4  1  0
  4  5  1  0
  5  6  2  0
  6  7  1  0
  7  8  1  0
  8  9  2  0
  9 10  1  0
 10 11  2  0
 11 12  1  0
 12 13  2  0
  5 13  1  0
  8 13  1  0
  2 14  1  0
 14 15  2  0
 14 16  1  0
 16 17  2  0
 17 18  1  0
 18 19  2  0
 19 20  1  0
 20 21  2  0
 16 21  1  0
 19 22  1  0
 22 23  2  0
 23 24  1  0
 24 25  2  0
 25 26  1  0
 26 27  2  0
 22 27  1  0
M  END
>  <pIC50>  (334) 
4.04

>  <chembl_id>  (334) 
CHEMBL457179

>  <canonical_smiles>  (334) 
CN(CCc1c[nH]c2ccccc12)C(=O)c3ccc(cc3)c4ccncc4

$$$$
CHEMBL457180
     RDKit          2D

 27 31  0  0  0  0  0  0  0  0999 V2000
    5.0223   -0.7152    0.0000 O   0  0  0  0  0  0  0  0  0  0  0  0
    4.7674    0.0694    0.0000 C   0  0  0  0  0  0  0  0  0  0  0  0
    3.9604    0.2410    0.0000 N   0  0  0  0  0  0  0  0  0  0  0  0
    3.7054    1.0256    0.0000 C   0  0  0  0  0  0  0  0  0  0  0  0
    2.8985    1.1971    0.0000 C   0  0  0  0  0  0  0  0  0  0  0  0
    2.3464    0.5840    0.0000 C   0  0  0  0  0  0  0  0  0  0  0  0
    2.6014   -0.2006    0.0000 C   0  0  0  0  0  0  0  0  0  0  0  0
    3.4084   -0.3721    0.0000 C   0  0  0  0  0  0  0  0  0  0  0  0
    1.9339   -0.6855    0.0000 N   0  0  0  0  0  0  0  0  0  0  0  0
    1.2665   -0.2006    0.0000 C   0  0  0  0  0  0  0  0  0  0  0  0
    0.4595   -0.3721    0.0000 C   0  0  0  0  0  0  0  0  0  0  0  0
   -0.0925    0.2410    0.0000 C   0  0  0  0  0  0  0  0  0  0  0  0
    0.1624    1.0256    0.0000 C   0  0  0  0  0  0  0  0  0  0  0  0
    0.9694    1.1971    0.0000 C   0  0  0  0  0  0  0  0  0  0  0  0
    1.5214    0.5840    0.0000 C   0  0  0  0  0  0  0  0  0  0  0  0
    5.3194    0.6825    0.0000 C   0  0  0  0  0  0  0  0  0  0  0  0
    5.0645    1.4672    0.0000 C   0  0  0  0  0  0  0  0  0  0  0  0
    5.6165    2.0803    0.0000 C   0  0  0  0  0  0  0  0  0  0  0  0
    6.4235    1.9087    0.0000 C   0  0  0  0  0  0  0  0  0  0  0  0
    6.6784    1.1241    0.0000 C   0  0  0  0  0  0  0  0  0  0  0  0
    6.1264    0.5110    0.0000 C   0  0  0  0  0  0  0  0  0  0  0  0
    6.3813   -0.2736    0.0000 C   0  0  0  0  0  0  0  0  0  0  0  0
    7.1883   -0.4451    0.0000 C   0  0  0  0  0  0  0  0  0  0  0  0
    7.4432   -1.2298    0.0000 C   0  0  0  0  0  0  0  0  0  0  0  0
    6.8912   -1.8429    0.0000 N   0  0  0  0  0  0  0  0  0  0  0  0
    6.0842   -1.6713    0.0000 C   0  0  0  0  0  0  0  0  0  0  0  0
    5.8293   -0.8867    0.0000 C   0  0  0  0  0  0  0  0  0  0  0  0
  1  2  2  0
  2  3  1  0
  3  4  1  0
  4  5  1  0
  5  6  1  0
  6  7  2  0
  7  8  1  0
  3  8  1  0
  7  9  1  0
  9 10  1  0
 10 11  2  0
 11 12  1  0
 12 13  2  0
 13 14  1  0
 14 15  2  0
  6 15  1  0
 10 15  1  0
  2 16  1  0
 16 17  2  0
 17 18  1  0
 18 19  2  0
 19 20  1  0
 20 21  2  0
 16 21  1  0
 21 22  1  0
 22 23  2  0
 23 24  1  0
 24 25  2  0
 25 26  1  0
 26 27  2  0
 22 27  1  0
M  END
>  <pIC50>  (335) 
3.45

>  <chembl_id>  (335) 
CHEMBL457180

>  <canonical_smiles>  (335) 
O=C(N1CCc2c(C1)[nH]c3ccccc23)c4ccccc4c5ccncc5

$$$$
CHEMBL457190
     RDKit          2D

 28 32  0  0  0  0  0  0  0  0999 V2000
    7.7403    0.1680    0.0000 F   0  0  0  0  0  0  0  0  0  0  0  0
    7.1883   -0.4451    0.0000 C   0  0  0  0  0  0  0  0  0  0  0  0
    7.4432   -1.2298    0.0000 C   0  0  0  0  0  0  0  0  0  0  0  0
    6.8912   -1.8429    0.0000 C   0  0  0  0  0  0  0  0  0  0  0  0
    6.0842   -1.6713    0.0000 C   0  0  0  0  0  0  0  0  0  0  0  0
    5.8293   -0.8867    0.0000 C   0  0  0  0  0  0  0  0  0  0  0  0
    6.3813   -0.2736    0.0000 C   0  0  0  0  0  0  0  0  0  0  0  0
    6.1264    0.5110    0.0000 C   0  0  0  0  0  0  0  0  0  0  0  0
    6.6784    1.1241    0.0000 C   0  0  0  0  0  0  0  0  0  0  0  0
    6.4235    1.9087    0.0000 C   0  0  0  0  0  0  0  0  0  0  0  0
    5.6165    2.0803    0.0000 C   0  0  0  0  0  0  0  0  0  0  0  0
    5.0645    1.4672    0.0000 C   0  0  0  0  0  0  0  0  0  0  0  0
    5.3194    0.6825    0.0000 C   0  0  0  0  0  0  0  0  0  0  0  0
    4.7674    0.0694    0.0000 C   0  0  0  0  0  0  0  0  0  0  0  0
    5.0223   -0.7152    0.0000 O   0  0  0  0  0  0  0  0  0  0  0  0
    3.9604    0.2410    0.0000 N   0  0  0  0  0  0  0  0  0  0  0  0
    3.7054    1.0256    0.0000 C   0  0  0  0  0  0  0  0  0  0  0  0
    2.8985    1.1971    0.0000 C   0  0  0  0  0  0  0  0  0  0  0  0
    2.3464    0.5840    0.0000 C   0  0  0  0  0  0  0  0  0  0  0  0
    2.6014   -0.2006    0.0000 C   0  0  0  0  0  0  0  0  0  0  0  0
    3.4084   -0.3721    0.0000 C   0  0  0  0  0  0  0  0  0  0  0  0
    1.9339   -0.6855    0.0000 N   0  0  0  0  0  0  0  0  0  0  0  0
    1.2665   -0.2006    0.0000 C   0  0  0  0  0  0  0  0  0  0  0  0
    0.4595   -0.3721    0.0000 C   0  0  0  0  0  0  0  0  0  0  0  0
   -0.0925    0.2410    0.0000 C   0  0  0  0  0  0  0  0  0  0  0  0
    0.1624    1.0256    0.0000 C   0  0  0  0  0  0  0  0  0  0  0  0
    0.9694    1.1971    0.0000 C   0  0  0  0  0  0  0  0  0  0  0  0
    1.5214    0.5840    0.0000 C   0  0  0  0  0  0  0  0  0  0  0  0
  1  2  1  0
  2  3  2  0
  3  4  1  0
  4  5  2  0
  5  6  1  0
  6  7  2  0
  2  7  1  0
  7  8  1  0
  8  9  2  0
  9 10  1  0
 10 11  2  0
 11 12  1  0
 12 13  2  0
  8 13  1  0
 13 14  1  0
 14 15  2  0
 14 16  1  0
 16 17  1  0
 17 18  1  0
 18 19  1  0
 19 20  2  0
 20 21  1  0
 16 21  1  0
 20 22  1  0
 22 23  1  0
 23 24  2  0
 24 25  1  0
 25 26  2  0
 26 27  1  0
 27 28  2  0
 19 28  1  0
 23 28  1  0
M  END
>  <pIC50>  (336) 
3.36

>  <chembl_id>  (336) 
CHEMBL457190

>  <canonical_smiles>  (336) 
Fc1ccccc1c2ccccc2C(=O)N3CCc4c(C3)[nH]c5ccccc45

$$$$
CHEMBL457191
     RDKit          2D

 28 32  0  0  0  0  0  0  0  0999 V2000
    4.5967    5.2187    0.0000 F   0  0  0  0  0  0  0  0  0  0  0  0
    4.8517    4.4341    0.0000 C   0  0  0  0  0  0  0  0  0  0  0  0
    5.6586    4.2626    0.0000 C   0  0  0  0  0  0  0  0  0  0  0  0
    5.9136    3.4780    0.0000 C   0  0  0  0  0  0  0  0  0  0  0  0
    5.3615    2.8649    0.0000 C   0  0  0  0  0  0  0  0  0  0  0  0
    4.5546    3.0364    0.0000 C   0  0  0  0  0  0  0  0  0  0  0  0
    4.2996    3.8210    0.0000 C   0  0  0  0  0  0  0  0  0  0  0  0
    5.6165    2.0803    0.0000 C   0  0  0  0  0  0  0  0  0  0  0  0
    6.4235    1.9087    0.0000 C   0  0  0  0  0  0  0  0  0  0  0  0
    6.6784    1.1241    0.0000 C   0  0  0  0  0  0  0  0  0  0  0  0
    6.1264    0.5110    0.0000 C   0  0  0  0  0  0  0  0  0  0  0  0
    5.3194    0.6825    0.0000 C   0  0  0  0  0  0  0  0  0  0  0  0
    5.0645    1.4672    0.0000 C   0  0  0  0  0  0  0  0  0  0  0  0
    4.7674    0.0694    0.0000 C   0  0  0  0  0  0  0  0  0  0  0  0
    5.0223   -0.7152    0.0000 O   0  0  0  0  0  0  0  0  0  0  0  0
    3.9604    0.2410    0.0000 N   0  0  0  0  0  0  0  0  0  0  0  0
    3.7054    1.0256    0.0000 C   0  0  0  0  0  0  0  0  0  0  0  0
    2.8985    1.1971    0.0000 C   0  0  0  0  0  0  0  0  0  0  0  0
    2.3464    0.5840    0.0000 C   0  0  0  0  0  0  0  0  0  0  0  0
    2.6014   -0.2006    0.0000 C   0  0  0  0  0  0  0  0  0  0  0  0
    3.4084   -0.3721    0.0000 C   0  0  0  0  0  0  0  0  0  0  0  0
    1.9339   -0.6855    0.0000 N   0  0  0  0  0  0  0  0  0  0  0  0
    1.2665   -0.2006    0.0000 C   0  0  0  0  0  0  0  0  0  0  0  0
    0.4595   -0.3721    0.0000 C   0  0  0  0  0  0  0  0  0  0  0  0
   -0.0925    0.2410    0.0000 C   0  0  0  0  0  0  0  0  0  0  0  0
    0.1624    1.0256    0.0000 C   0  0  0  0  0  0  0  0  0  0  0  0
    0.9694    1.1971    0.0000 C   0  0  0  0  0  0  0  0  0  0  0  0
    1.5214    0.5840    0.0000 C   0  0  0  0  0  0  0  0  0  0  0  0
  1  2  1  0
  2  3  2  0
  3  4  1  0
  4  5  2  0
  5  6  1  0
  6  7  2  0
  2  7  1  0
  5  8  1  0
  8  9  2  0
  9 10  1  0
 10 11  2  0
 11 12  1  0
 12 13  2  0
  8 13  1  0
 12 14  1  0
 14 15  2  0
 14 16  1  0
 16 17  1  0
 17 18  1  0
 18 19  1  0
 19 20  2  0
 20 21  1  0
 16 21  1  0
 20 22  1  0
 22 23  1  0
 23 24  2  0
 24 25  1  0
 25 26  2  0
 26 27  1  0
 27 28  2  0
 19 28  1  0
 23 28  1  0
M  END
>  <pIC50>  (337) 
3.50

>  <chembl_id>  (337) 
CHEMBL457191

>  <canonical_smiles>  (337) 
Fc1ccc(cc1)c2cccc(c2)C(=O)N3CCc4c(C3)[nH]c5ccccc45

$$$$
CHEMBL457390
     RDKit          2D

 27 31  0  0  0  0  0  0  0  0999 V2000
    5.0223   -0.7152    0.0000 O   0  0  0  0  0  0  0  0  0  0  0  0
    4.7674    0.0694    0.0000 C   0  0  0  0  0  0  0  0  0  0  0  0
    3.9604    0.2410    0.0000 N   0  0  0  0  0  0  0  0  0  0  0  0
    3.7054    1.0256    0.0000 C   0  0  0  0  0  0  0  0  0  0  0  0
    2.8985    1.1971    0.0000 C   0  0  0  0  0  0  0  0  0  0  0  0
    2.3464    0.5840    0.0000 C   0  0  0  0  0  0  0  0  0  0  0  0
    2.6014   -0.2006    0.0000 C   0  0  0  0  0  0  0  0  0  0  0  0
    3.4084   -0.3721    0.0000 C   0  0  0  0  0  0  0  0  0  0  0  0
    1.9339   -0.6855    0.0000 N   0  0  0  0  0  0  0  0  0  0  0  0
    1.2665   -0.2006    0.0000 C   0  0  0  0  0  0  0  0  0  0  0  0
    0.4595   -0.3721    0.0000 C   0  0  0  0  0  0  0  0  0  0  0  0
   -0.0925    0.2410    0.0000 C   0  0  0  0  0  0  0  0  0  0  0  0
    0.1624    1.0256    0.0000 C   0  0  0  0  0  0  0  0  0  0  0  0
    0.9694    1.1971    0.0000 C   0  0  0  0  0  0  0  0  0  0  0  0
    1.5214    0.5840    0.0000 C   0  0  0  0  0  0  0  0  0  0  0  0
    5.3194    0.6825    0.0000 C   0  0  0  0  0  0  0  0  0  0  0  0
    5.0645    1.4672    0.0000 C   0  0  0  0  0  0  0  0  0  0  0  0
    5.6165    2.0803    0.0000 C   0  0  0  0  0  0  0  0  0  0  0  0
    6.4235    1.9087    0.0000 C   0  0  0  0  0  0  0  0  0  0  0  0
    6.6784    1.1241    0.0000 C   0  0  0  0  0  0  0  0  0  0  0  0
    6.1264    0.5110    0.0000 C   0  0  0  0  0  0  0  0  0  0  0  0
    6.3813   -0.2736    0.0000 C   0  0  0  0  0  0  0  0  0  0  0  0
    7.1883   -0.4451    0.0000 C   0  0  0  0  0  0  0  0  0  0  0  0
    7.4432   -1.2298    0.0000 C   0  0  0  0  0  0  0  0  0  0  0  0
    6.8912   -1.8429    0.0000 C   0  0  0  0  0  0  0  0  0  0  0  0
    6.0842   -1.6713    0.0000 N   0  0  0  0  0  0  0  0  0  0  0  0
    5.8293   -0.8867    0.0000 C   0  0  0  0  0  0  0  0  0  0  0  0
  1  2  2  0
  2  3  1  0
  3  4  1  0
  4  5  1  0
  5  6  1  0
  6  7  2  0
  7  8  1  0
  3  8  1  0
  7  9  1  0
  9 10  1  0
 10 11  2  0
 11 12  1  0
 12 13  2  0
 13 14  1  0
 14 15  2  0
  6 15  1  0
 10 15  1  0
  2 16  1  0
 16 17  2  0
 17 18  1  0
 18 19  2  0
 19 20  1  0
 20 21  2  0
 16 21  1  0
 21 22  1  0
 22 23  2  0
 23 24  1  0
 24 25  2  0
 25 26  1  0
 26 27  2  0
 22 27  1  0
M  END
>  <pIC50>  (338) 
3.51

>  <chembl_id>  (338) 
CHEMBL457390

>  <canonical_smiles>  (338) 
O=C(N1CCc2c(C1)[nH]c3ccccc23)c4ccccc4c5cccnc5

$$$$
CHEMBL457401
     RDKit          2D

 28 32  0  0  0  0  0  0  0  0999 V2000
    7.1461   -2.6275    0.0000 F   0  0  0  0  0  0  0  0  0  0  0  0
    6.8912   -1.8429    0.0000 C   0  0  0  0  0  0  0  0  0  0  0  0
    6.0842   -1.6713    0.0000 C   0  0  0  0  0  0  0  0  0  0  0  0
    5.8293   -0.8867    0.0000 C   0  0  0  0  0  0  0  0  0  0  0  0
    6.3813   -0.2736    0.0000 C   0  0  0  0  0  0  0  0  0  0  0  0
    7.1883   -0.4451    0.0000 C   0  0  0  0  0  0  0  0  0  0  0  0
    7.4432   -1.2298    0.0000 C   0  0  0  0  0  0  0  0  0  0  0  0
    6.1264    0.5110    0.0000 C   0  0  0  0  0  0  0  0  0  0  0  0
    6.6784    1.1241    0.0000 C   0  0  0  0  0  0  0  0  0  0  0  0
    6.4235    1.9087    0.0000 C   0  0  0  0  0  0  0  0  0  0  0  0
    5.6165    2.0803    0.0000 C   0  0  0  0  0  0  0  0  0  0  0  0
    5.0645    1.4672    0.0000 C   0  0  0  0  0  0  0  0  0  0  0  0
    5.3194    0.6825    0.0000 C   0  0  0  0  0  0  0  0  0  0  0  0
    4.7674    0.0694    0.0000 C   0  0  0  0  0  0  0  0  0  0  0  0
    5.0223   -0.7152    0.0000 O   0  0  0  0  0  0  0  0  0  0  0  0
    3.9604    0.2410    0.0000 N   0  0  0  0  0  0  0  0  0  0  0  0
    3.7054    1.0256    0.0000 C   0  0  0  0  0  0  0  0  0  0  0  0
    2.8985    1.1971    0.0000 C   0  0  0  0  0  0  0  0  0  0  0  0
    2.3464    0.5840    0.0000 C   0  0  0  0  0  0  0  0  0  0  0  0
    2.6014   -0.2006    0.0000 C   0  0  0  0  0  0  0  0  0  0  0  0
    3.4084   -0.3721    0.0000 C   0  0  0  0  0  0  0  0  0  0  0  0
    1.9339   -0.6855    0.0000 N   0  0  0  0  0  0  0  0  0  0  0  0
    1.2665   -0.2006    0.0000 C   0  0  0  0  0  0  0  0  0  0  0  0
    0.4595   -0.3721    0.0000 C   0  0  0  0  0  0  0  0  0  0  0  0
   -0.0925    0.2410    0.0000 C   0  0  0  0  0  0  0  0  0  0  0  0
    0.1624    1.0256    0.0000 C   0  0  0  0  0  0  0  0  0  0  0  0
    0.9694    1.1971    0.0000 C   0  0  0  0  0  0  0  0  0  0  0  0
    1.5214    0.5840    0.0000 C   0  0  0  0  0  0  0  0  0  0  0  0
  1  2  1  0
  2  3  2  0
  3  4  1  0
  4  5  2  0
  5  6  1  0
  6  7  2  0
  2  7  1  0
  5  8  1  0
  8  9  2  0
  9 10  1  0
 10 11  2  0
 11 12  1  0
 12 13  2  0
  8 13  1  0
 13 14  1  0
 14 15  2  0
 14 16  1  0
 16 17  1  0
 17 18  1  0
 18 19  1  0
 19 20  2  0
 20 21  1  0
 16 21  1  0
 20 22  1  0
 22 23  1  0
 23 24  2  0
 24 25  1  0
 25 26  2  0
 26 27  1  0
 27 28  2  0
 19 28  1  0
 23 28  1  0
M  END
>  <pIC50>  (339) 
3.45

>  <chembl_id>  (339) 
CHEMBL457401

>  <canonical_smiles>  (339) 
Fc1ccc(cc1)c2ccccc2C(=O)N3CCc4c(C3)[nH]c5ccccc45

$$$$
CHEMBL458075
     RDKit          2D

 28 32  0  0  0  0  0  0  0  0999 V2000
    3.4927    3.9926    0.0000 C   0  0  0  0  0  0  0  0  0  0  0  0
    4.2996    3.8210    0.0000 C   0  0  0  0  0  0  0  0  0  0  0  0
    4.8517    4.4341    0.0000 C   0  0  0  0  0  0  0  0  0  0  0  0
    5.6586    4.2626    0.0000 C   0  0  0  0  0  0  0  0  0  0  0  0
    5.9136    3.4780    0.0000 C   0  0  0  0  0  0  0  0  0  0  0  0
    5.3615    2.8649    0.0000 C   0  0  0  0  0  0  0  0  0  0  0  0
    4.5546    3.0364    0.0000 C   0  0  0  0  0  0  0  0  0  0  0  0
    5.6165    2.0803    0.0000 C   0  0  0  0  0  0  0  0  0  0  0  0
    6.4235    1.9087    0.0000 C   0  0  0  0  0  0  0  0  0  0  0  0
    6.6784    1.1241    0.0000 C   0  0  0  0  0  0  0  0  0  0  0  0
    6.1264    0.5110    0.0000 C   0  0  0  0  0  0  0  0  0  0  0  0
    5.3194    0.6825    0.0000 C   0  0  0  0  0  0  0  0  0  0  0  0
    5.0645    1.4672    0.0000 C   0  0  0  0  0  0  0  0  0  0  0  0
    4.7674    0.0694    0.0000 C   0  0  0  0  0  0  0  0  0  0  0  0
    5.0223   -0.7152    0.0000 O   0  0  0  0  0  0  0  0  0  0  0  0
    3.9604    0.2410    0.0000 N   0  0  0  0  0  0  0  0  0  0  0  0
    3.7054    1.0256    0.0000 C   0  0  0  0  0  0  0  0  0  0  0  0
    2.8985    1.1971    0.0000 C   0  0  0  0  0  0  0  0  0  0  0  0
    2.3464    0.5840    0.0000 C   0  0  0  0  0  0  0  0  0  0  0  0
    2.6014   -0.2006    0.0000 C   0  0  0  0  0  0  0  0  0  0  0  0
    3.4084   -0.3721    0.0000 C   0  0  0  0  0  0  0  0  0  0  0  0
    1.9339   -0.6855    0.0000 N   0  0  0  0  0  0  0  0  0  0  0  0
    1.2665   -0.2006    0.0000 C   0  0  0  0  0  0  0  0  0  0  0  0
    0.4595   -0.3721    0.0000 C   0  0  0  0  0  0  0  0  0  0  0  0
   -0.0925    0.2410    0.0000 C   0  0  0  0  0  0  0  0  0  0  0  0
    0.1624    1.0256    0.0000 C   0  0  0  0  0  0  0  0  0  0  0  0
    0.9694    1.1971    0.0000 C   0  0  0  0  0  0  0  0  0  0  0  0
    1.5214    0.5840    0.0000 C   0  0  0  0  0  0  0  0  0  0  0  0
  1  2  1  0
  2  3  2  0
  3  4  1  0
  4  5  2  0
  5  6  1  0
  6  7  2  0
  2  7  1  0
  6  8  1  0
  8  9  2  0
  9 10  1  0
 10 11  2  0
 11 12  1  0
 12 13  2  0
  8 13  1  0
 12 14  1  0
 14 15  2  0
 14 16  1  0
 16 17  1  0
 17 18  1  0
 18 19  1  0
 19 20  2  0
 20 21  1  0
 16 21  1  0
 20 22  1  0
 22 23  1  0
 23 24  2  0
 24 25  1  0
 25 26  2  0
 26 27  1  0
 27 28  2  0
 19 28  1  0
 23 28  1  0
M  END
>  <pIC50>  (340) 
3.33

>  <chembl_id>  (340) 
CHEMBL458075

>  <canonical_smiles>  (340) 
Cc1cccc(c1)c2cccc(c2)C(=O)N3CCc4c(C3)[nH]c5ccccc45

$$$$
CHEMBL458076
     RDKit          2D

 28 32  0  0  0  0  0  0  0  0999 V2000
    4.0025    2.4233    0.0000 C   0  0  0  0  0  0  0  0  0  0  0  0
    4.5546    3.0364    0.0000 C   0  0  0  0  0  0  0  0  0  0  0  0
    4.2996    3.8210    0.0000 C   0  0  0  0  0  0  0  0  0  0  0  0
    4.8517    4.4341    0.0000 C   0  0  0  0  0  0  0  0  0  0  0  0
    5.6586    4.2626    0.0000 C   0  0  0  0  0  0  0  0  0  0  0  0
    5.9136    3.4780    0.0000 C   0  0  0  0  0  0  0  0  0  0  0  0
    5.3615    2.8649    0.0000 C   0  0  0  0  0  0  0  0  0  0  0  0
    5.6165    2.0803    0.0000 C   0  0  0  0  0  0  0  0  0  0  0  0
    6.4235    1.9087    0.0000 C   0  0  0  0  0  0  0  0  0  0  0  0
    6.6784    1.1241    0.0000 C   0  0  0  0  0  0  0  0  0  0  0  0
    6.1264    0.5110    0.0000 C   0  0  0  0  0  0  0  0  0  0  0  0
    5.3194    0.6825    0.0000 C   0  0  0  0  0  0  0  0  0  0  0  0
    5.0645    1.4672    0.0000 C   0  0  0  0  0  0  0  0  0  0  0  0
    4.7674    0.0694    0.0000 C   0  0  0  0  0  0  0  0  0  0  0  0
    5.0223   -0.7152    0.0000 O   0  0  0  0  0  0  0  0  0  0  0  0
    3.9604    0.2410    0.0000 N   0  0  0  0  0  0  0  0  0  0  0  0
    3.7054    1.0256    0.0000 C   0  0  0  0  0  0  0  0  0  0  0  0
    2.8985    1.1971    0.0000 C   0  0  0  0  0  0  0  0  0  0  0  0
    2.3464    0.5840    0.0000 C   0  0  0  0  0  0  0  0  0  0  0  0
    2.6014   -0.2006    0.0000 C   0  0  0  0  0  0  0  0  0  0  0  0
    3.4084   -0.3721    0.0000 C   0  0  0  0  0  0  0  0  0  0  0  0
    1.9339   -0.6855    0.0000 N   0  0  0  0  0  0  0  0  0  0  0  0
    1.2665   -0.2006    0.0000 C   0  0  0  0  0  0  0  0  0  0  0  0
    0.4595   -0.3721    0.0000 C   0  0  0  0  0  0  0  0  0  0  0  0
   -0.0925    0.2410    0.0000 C   0  0  0  0  0  0  0  0  0  0  0  0
    0.1624    1.0256    0.0000 C   0  0  0  0  0  0  0  0  0  0  0  0
    0.9694    1.1971    0.0000 C   0  0  0  0  0  0  0  0  0  0  0  0
    1.5214    0.5840    0.0000 C   0  0  0  0  0  0  0  0  0  0  0  0
  1  2  1  0
  2  3  2  0
  3  4  1  0
  4  5  2  0
  5  6  1  0
  6  7  2  0
  2  7  1  0
  7  8  1  0
  8  9  2  0
  9 10  1  0
 10 11  2  0
 11 12  1  0
 12 13  2  0
  8 13  1  0
 12 14  1  0
 14 15  2  0
 14 16  1  0
 16 17  1  0
 17 18  1  0
 18 19  1  0
 19 20  2  0
 20 21  1  0
 16 21  1  0
 20 22  1  0
 22 23  1  0
 23 24  2  0
 24 25  1  0
 25 26  2  0
 26 27  1  0
 27 28  2  0
 19 28  1  0
 23 28  1  0
M  END
>  <pIC50>  (341) 
3.18

>  <chembl_id>  (341) 
CHEMBL458076

>  <canonical_smiles>  (341) 
Cc1ccccc1c2cccc(c2)C(=O)N3CCc4c(C3)[nH]c5ccccc45

$$$$
CHEMBL463383
     RDKit          2D

 28 32  0  0  0  0  0  0  0  0999 V2000
    8.6316    4.3611    0.0000 C   0  0  0  0  0  0  0  0  0  0  0  0
    8.0796    3.7480    0.0000 C   0  0  0  0  0  0  0  0  0  0  0  0
    8.3345    2.9634    0.0000 C   0  0  0  0  0  0  0  0  0  0  0  0
    7.7825    2.3503    0.0000 C   0  0  0  0  0  0  0  0  0  0  0  0
    6.9755    2.5218    0.0000 C   0  0  0  0  0  0  0  0  0  0  0  0
    6.7206    3.3064    0.0000 C   0  0  0  0  0  0  0  0  0  0  0  0
    7.2726    3.9195    0.0000 C   0  0  0  0  0  0  0  0  0  0  0  0
    6.4235    1.9087    0.0000 C   0  0  0  0  0  0  0  0  0  0  0  0
    6.6784    1.1241    0.0000 C   0  0  0  0  0  0  0  0  0  0  0  0
    6.1264    0.5110    0.0000 C   0  0  0  0  0  0  0  0  0  0  0  0
    5.3194    0.6825    0.0000 C   0  0  0  0  0  0  0  0  0  0  0  0
    5.0645    1.4672    0.0000 C   0  0  0  0  0  0  0  0  0  0  0  0
    5.6165    2.0803    0.0000 C   0  0  0  0  0  0  0  0  0  0  0  0
    4.7674    0.0694    0.0000 C   0  0  0  0  0  0  0  0  0  0  0  0
    5.0223   -0.7152    0.0000 O   0  0  0  0  0  0  0  0  0  0  0  0
    3.9604    0.2410    0.0000 N   0  0  0  0  0  0  0  0  0  0  0  0
    3.7054    1.0256    0.0000 C   0  0  0  0  0  0  0  0  0  0  0  0
    2.8985    1.1971    0.0000 C   0  0  0  0  0  0  0  0  0  0  0  0
    2.3464    0.5840    0.0000 C   0  0  0  0  0  0  0  0  0  0  0  0
    2.6014   -0.2006    0.0000 C   0  0  0  0  0  0  0  0  0  0  0  0
    3.4084   -0.3721    0.0000 C   0  0  0  0  0  0  0  0  0  0  0  0
    1.9339   -0.6855    0.0000 N   0  0  0  0  0  0  0  0  0  0  0  0
    1.2665   -0.2006    0.0000 C   0  0  0  0  0  0  0  0  0  0  0  0
    0.4595   -0.3721    0.0000 C   0  0  0  0  0  0  0  0  0  0  0  0
   -0.0925    0.2410    0.0000 C   0  0  0  0  0  0  0  0  0  0  0  0
    0.1624    1.0256    0.0000 C   0  0  0  0  0  0  0  0  0  0  0  0
    0.9694    1.1971    0.0000 C   0  0  0  0  0  0  0  0  0  0  0  0
    1.5214    0.5840    0.0000 C   0  0  0  0  0  0  0  0  0  0  0  0
  1  2  1  0
  2  3  2  0
  3  4  1  0
  4  5  2  0
  5  6  1  0
  6  7  2  0
  2  7  1  0
  5  8  1  0
  8  9  2  0
  9 10  1  0
 10 11  2  0
 11 12  1  0
 12 13  2  0
  8 13  1  0
 11 14  1  0
 14 15  2  0
 14 16  1  0
 16 17  1  0
 17 18  1  0
 18 19  1  0
 19 20  2  0
 20 21  1  0
 16 21  1  0
 20 22  1  0
 22 23  1  0
 23 24  2  0
 24 25  1  0
 25 26  2  0
 26 27  1  0
 27 28  2  0
 19 28  1  0
 23 28  1  0
M  END
>  <pIC50>  (342) 
3.13

>  <chembl_id>  (342) 
CHEMBL463383

>  <canonical_smiles>  (342) 
Cc1ccc(cc1)c2ccc(cc2)C(=O)N3CCc4c(C3)[nH]c5ccccc45

$$$$
CHEMBL463384
     RDKit          2D

 28 32  0  0  0  0  0  0  0  0999 V2000
    7.0176    4.7042    0.0000 C   0  0  0  0  0  0  0  0  0  0  0  0
    7.2726    3.9195    0.0000 C   0  0  0  0  0  0  0  0  0  0  0  0
    8.0796    3.7480    0.0000 C   0  0  0  0  0  0  0  0  0  0  0  0
    8.3345    2.9634    0.0000 C   0  0  0  0  0  0  0  0  0  0  0  0
    7.7825    2.3503    0.0000 C   0  0  0  0  0  0  0  0  0  0  0  0
    6.9755    2.5218    0.0000 C   0  0  0  0  0  0  0  0  0  0  0  0
    6.7206    3.3064    0.0000 C   0  0  0  0  0  0  0  0  0  0  0  0
    6.4235    1.9087    0.0000 C   0  0  0  0  0  0  0  0  0  0  0  0
    6.6784    1.1241    0.0000 C   0  0  0  0  0  0  0  0  0  0  0  0
    6.1264    0.5110    0.0000 C   0  0  0  0  0  0  0  0  0  0  0  0
    5.3194    0.6825    0.0000 C   0  0  0  0  0  0  0  0  0  0  0  0
    5.0645    1.4672    0.0000 C   0  0  0  0  0  0  0  0  0  0  0  0
    5.6165    2.0803    0.0000 C   0  0  0  0  0  0  0  0  0  0  0  0
    4.7674    0.0694    0.0000 C   0  0  0  0  0  0  0  0  0  0  0  0
    5.0223   -0.7152    0.0000 O   0  0  0  0  0  0  0  0  0  0  0  0
    3.9604    0.2410    0.0000 N   0  0  0  0  0  0  0  0  0  0  0  0
    3.7054    1.0256    0.0000 C   0  0  0  0  0  0  0  0  0  0  0  0
    2.8985    1.1971    0.0000 C   0  0  0  0  0  0  0  0  0  0  0  0
    2.3464    0.5840    0.0000 C   0  0  0  0  0  0  0  0  0  0  0  0
    2.6014   -0.2006    0.0000 C   0  0  0  0  0  0  0  0  0  0  0  0
    3.4084   -0.3721    0.0000 C   0  0  0  0  0  0  0  0  0  0  0  0
    1.9339   -0.6855    0.0000 N   0  0  0  0  0  0  0  0  0  0  0  0
    1.2665   -0.2006    0.0000 C   0  0  0  0  0  0  0  0  0  0  0  0
    0.4595   -0.3721    0.0000 C   0  0  0  0  0  0  0  0  0  0  0  0
   -0.0925    0.2410    0.0000 C   0  0  0  0  0  0  0  0  0  0  0  0
    0.1624    1.0256    0.0000 C   0  0  0  0  0  0  0  0  0  0  0  0
    0.9694    1.1971    0.0000 C   0  0  0  0  0  0  0  0  0  0  0  0
    1.5214    0.5840    0.0000 C   0  0  0  0  0  0  0  0  0  0  0  0
  1  2  1  0
  2  3  2  0
  3  4  1  0
  4  5  2  0
  5  6  1  0
  6  7  2  0
  2  7  1  0
  6  8  1  0
  8  9  2  0
  9 10  1  0
 10 11  2  0
 11 12  1  0
 12 13  2  0
  8 13  1  0
 11 14  1  0
 14 15  2  0
 14 16  1  0
 16 17  1  0
 17 18  1  0
 18 19  1  0
 19 20  2  0
 20 21  1  0
 16 21  1  0
 20 22  1  0
 22 23  1  0
 23 24  2  0
 24 25  1  0
 25 26  2  0
 26 27  1  0
 27 28  2  0
 19 28  1  0
 23 28  1  0
M  END
>  <pIC50>  (343) 
3.39

>  <chembl_id>  (343) 
CHEMBL463384

>  <canonical_smiles>  (343) 
Cc1cccc(c1)c2ccc(cc2)C(=O)N3CCc4c(C3)[nH]c5ccccc45

$$$$
CHEMBL468963
     RDKit          2D

 33 37  0  0  0  0  0  0  0  0999 V2000
   -0.0517   -9.6532    0.0000 C   0  0  0  0  0  0  0  0  0  0  0  0
    0.2033   -8.8685    0.0000 N   0  0  0  0  0  0  0  0  0  0  0  0
   -0.3488   -8.2554    0.0000 C   0  0  0  0  0  0  0  0  0  0  0  0
   -0.0938   -7.4708    0.0000 C   0  0  0  0  0  0  0  0  0  0  0  0
    0.7132   -7.2993    0.0000 N   0  0  0  0  0  0  0  0  0  0  0  0
    1.2652   -7.9124    0.0000 C   0  0  0  0  0  0  0  0  0  0  0  0
    1.0102   -8.6970    0.0000 C   0  0  0  0  0  0  0  0  0  0  0  0
    0.9681   -6.5147    0.0000 C   0  0  0  0  0  0  0  0  0  0  0  0
    0.4161   -5.9016    0.0000 C   0  0  0  0  0  0  0  0  0  0  0  0
    0.6710   -5.1170    0.0000 C   0  0  0  0  0  0  0  0  0  0  0  0
    1.4780   -4.9454    0.0000 C   0  0  0  0  0  0  0  0  0  0  0  0
    1.7329   -4.1608    0.0000 N   0  0  0  0  0  0  0  0  0  0  0  0
    1.1809   -3.5477    0.0000 C   0  0  0  0  0  0  0  0  0  0  0  0
    0.3739   -3.7192    0.0000 N   0  0  0  0  0  0  0  0  0  0  0  0
   -0.1781   -3.1062    0.0000 C   0  0  0  0  0  0  0  0  0  0  0  0
    0.0768   -2.3215    0.0000 C   0  0  0  0  0  0  0  0  0  0  0  0
    0.8838   -2.1500    0.0000 C   0  0  0  0  0  0  0  0  0  0  0  0
    1.4358   -2.7631    0.0000 N   0  0  0  0  0  0  0  0  0  0  0  0
    1.1387   -1.3654    0.0000 C   0  0  0  0  0  0  0  0  0  0  0  0
    0.6538   -0.6979    0.0000 C   0  0  0  0  0  0  0  0  0  0  0  0
    1.1387   -0.0305    0.0000 N   0  0  0  0  0  0  0  0  0  0  0  0
    1.9233   -0.2854    0.0000 N   0  0  0  0  0  0  0  0  0  0  0  0
    2.6378    0.1271    0.0000 N   0  0  0  0  0  0  0  0  0  0  0  0
    3.3523   -0.2854    0.0000 C   0  0  0  0  0  0  0  0  0  0  0  0
    3.3523   -1.1104    0.0000 C   0  0  0  0  0  0  0  0  0  0  0  0
    2.6378   -1.5229    0.0000 C   0  0  0  0  0  0  0  0  0  0  0  0
    1.9233   -1.1104    0.0000 C   0  0  0  0  0  0  0  0  0  0  0  0
    2.0300   -5.5585    0.0000 C   0  0  0  0  0  0  0  0  0  0  0  0
    1.7751   -6.3432    0.0000 C   0  0  0  0  0  0  0  0  0  0  0  0
    2.3271   -6.9562    0.0000 C   0  0  0  0  0  0  0  0  0  0  0  0
    2.8791   -7.5693    0.0000 F   0  0  0  0  0  0  0  0  0  0  0  0
    1.7140   -7.5083    0.0000 F   0  0  0  0  0  0  0  0  0  0  0  0
    2.9402   -6.4042    0.0000 F   0  0  0  0  0  0  0  0  0  0  0  0
  1  2  1  0
  2  3  1  0
  3  4  1  0
  4  5  1  0
  5  6  1  0
  6  7  1  0
  2  7  1  0
  5  8  1  0
  8  9  2  0
  9 10  1  0
 10 11  2  0
 11 12  1  0
 12 13  1  0
 13 14  2  0
 14 15  1  0
 15 16  2  0
 16 17  1  0
 17 18  2  0
 13 18  1  0
 17 19  1  0
 19 20  1  0
 20 21  2  0
 21 22  1  0
 22 23  1  0
 23 24  2  0
 24 25  1  0
 25 26  2  0
 26 27  1  0
 19 27  2  0
 22 27  1  0
 11 28  1  0
 28 29  2  0
  8 29  1  0
 29 30  1  0
 30 31  1  0
 30 32  1  0
 30 33  1  0
M  END
>  <pIC50>  (344) 
8.40

>  <chembl_id>  (344) 
CHEMBL468963

>  <canonical_smiles>  (344) 
CN1CCN(CC1)c2ccc(Nc3nccc(n3)c4cnn5ncccc45)cc2C(F)(F)F

$$$$
CHEMBL471790
     RDKit          2D

 34 39  0  0  0  0  0  0  0  0999 V2000
   -2.8385    0.0117    0.0000 C   0  0  0  0  0  0  0  0  0  0  0  0
   -3.4516    0.5637    0.0000 O   0  0  0  0  0  0  0  0  0  0  0  0
   -3.2800    1.3707    0.0000 C   0  0  0  0  0  0  0  0  0  0  0  0
   -3.8931    1.9227    0.0000 C   0  0  0  0  0  0  0  0  0  0  0  0
   -3.7216    2.7297    0.0000 C   0  0  0  0  0  0  0  0  0  0  0  0
   -4.3347    3.2817    0.0000 N   0  0  0  0  0  0  0  0  0  0  0  0
   -2.9370    2.9846    0.0000 C   0  0  0  0  0  0  0  0  0  0  0  0
   -2.3239    2.4326    0.0000 C   0  0  0  0  0  0  0  0  0  0  0  0
   -2.4954    1.6256    0.0000 C   0  0  0  0  0  0  0  0  0  0  0  0
   -1.8823    1.0736    0.0000 C   0  0  0  0  0  0  0  0  0  0  0  0
   -1.0977    1.3285    0.0000 C   0  0  0  0  0  0  0  0  0  0  0  0
   -0.4846    0.7765    0.0000 C   0  0  0  0  0  0  0  0  0  0  0  0
   -0.6561   -0.0305    0.0000 C   0  0  0  0  0  0  0  0  0  0  0  0
   -0.1712   -0.6979    0.0000 C   0  0  0  0  0  0  0  0  0  0  0  0
   -0.6561   -1.3654    0.0000 N   0  0  0  0  0  0  0  0  0  0  0  0
   -1.4407   -1.1104    0.0000 N   0  0  0  0  0  0  0  0  0  0  0  0
   -1.4407   -0.2854    0.0000 C   0  0  0  0  0  0  0  0  0  0  0  0
   -2.0538    0.2666    0.0000 C   0  0  0  0  0  0  0  0  0  0  0  0
    0.6538   -0.6979    0.0000 C   0  0  0  0  0  0  0  0  0  0  0  0
    1.1387   -0.0305    0.0000 N   0  0  0  0  0  0  0  0  0  0  0  0
    1.9233   -0.2854    0.0000 C   0  0  0  0  0  0  0  0  0  0  0  0
    2.6378    0.1271    0.0000 C   0  0  0  0  0  0  0  0  0  0  0  0
    3.3523   -0.2854    0.0000 C   0  0  0  0  0  0  0  0  0  0  0  0
    3.3523   -1.1104    0.0000 C   0  0  0  0  0  0  0  0  0  0  0  0
    2.6378   -1.5229    0.0000 C   0  0  0  0  0  0  0  0  0  0  0  0
    1.9233   -1.1104    0.0000 C   0  0  0  0  0  0  0  0  0  0  0  0
    1.1387   -1.3654    0.0000 N   0  0  0  0  0  0  0  0  0  0  0  0
    2.6378    0.9521    0.0000 N   0  0  0  0  0  0  0  0  0  0  0  0
    1.9233    1.3646    0.0000 C   0  0  0  0  0  0  0  0  0  0  0  0
    1.9233    2.1896    0.0000 C   0  0  0  0  0  0  0  0  0  0  0  0
    2.6378    2.6021    0.0000 N   0  0  0  0  0  0  0  0  0  0  0  0
    2.6378    3.4271    0.0000 C   0  0  0  0  0  0  0  0  0  0  0  0
    3.3523    2.1896    0.0000 C   0  0  0  0  0  0  0  0  0  0  0  0
    3.3523    1.3646    0.0000 C   0  0  0  0  0  0  0  0  0  0  0  0
  1  2  1  0
  2  3  1  0
  3  4  2  0
  4  5  1  0
  5  6  1  0
  5  7  2  0
  7  8  1  0
  8  9  2  0
  3  9  1  0
  9 10  1  0
 10 11  2  0
 11 12  1  0
 12 13  2  0
 13 14  1  0
 14 15  2  0
 15 16  1  0
 16 17  1  0
 13 17  1  0
 17 18  2  0
 10 18  1  0
 14 19  1  0
 19 20  2  0
 20 21  1  0
 21 22  2  0
 22 23  1  0
 23 24  2  0
 24 25  1  0
 25 26  2  0
 21 26  1  0
 26 27  1  0
 19 27  1  0
 22 28  1  0
 28 29  1  0
 29 30  1  0
 30 31  1  0
 31 32  1  0
 31 33  1  0
 33 34  1  0
 28 34  1  0
M  END
>  <pIC50>  (345) 
5.00

>  <chembl_id>  (345) 
CHEMBL471790

>  <canonical_smiles>  (345) 
COc1cc(N)ccc1c2ccc3c(n[nH]c3c2)c4nc5c(cccc5[nH]4)N6CCN(C)CC6

$$$$
CHEMBL471791
     RDKit          2D

 34 39  0  0  0  0  0  0  0  0999 V2000
    4.1938   -5.3116    0.0000 C   0  0  0  0  0  0  0  0  0  0  0  0
    3.4092   -5.0567    0.0000 N   0  0  0  0  0  0  0  0  0  0  0  0
    2.7961   -5.6087    0.0000 C   0  0  0  0  0  0  0  0  0  0  0  0
    2.0115   -5.3538    0.0000 C   0  0  0  0  0  0  0  0  0  0  0  0
    1.8399   -4.5468    0.0000 N   0  0  0  0  0  0  0  0  0  0  0  0
    2.4530   -3.9948    0.0000 C   0  0  0  0  0  0  0  0  0  0  0  0
    3.2376   -4.2497    0.0000 C   0  0  0  0  0  0  0  0  0  0  0  0
    1.0553   -4.2919    0.0000 C   0  0  0  0  0  0  0  0  0  0  0  0
    0.4422   -4.8439    0.0000 C   0  0  0  0  0  0  0  0  0  0  0  0
   -0.3424   -4.5889    0.0000 C   0  0  0  0  0  0  0  0  0  0  0  0
   -0.5139   -3.7820    0.0000 C   0  0  0  0  0  0  0  0  0  0  0  0
    0.0992   -3.2299    0.0000 C   0  0  0  0  0  0  0  0  0  0  0  0
    0.0992   -2.4049    0.0000 N   0  0  0  0  0  0  0  0  0  0  0  0
    0.8838   -2.1500    0.0000 C   0  0  0  0  0  0  0  0  0  0  0  0
    1.3687   -2.8174    0.0000 N   0  0  0  0  0  0  0  0  0  0  0  0
    0.8838   -3.4849    0.0000 C   0  0  0  0  0  0  0  0  0  0  0  0
    1.1387   -1.3654    0.0000 C   0  0  0  0  0  0  0  0  0  0  0  0
    0.6538   -0.6979    0.0000 N   0  0  0  0  0  0  0  0  0  0  0  0
    1.1387   -0.0305    0.0000 N   0  0  0  0  0  0  0  0  0  0  0  0
    1.9233   -0.2854    0.0000 C   0  0  0  0  0  0  0  0  0  0  0  0
    2.6378    0.1271    0.0000 C   0  0  0  0  0  0  0  0  0  0  0  0
    3.3523   -0.2854    0.0000 C   0  0  0  0  0  0  0  0  0  0  0  0
    3.3523   -1.1104    0.0000 C   0  0  0  0  0  0  0  0  0  0  0  0
    2.6378   -1.5229    0.0000 C   0  0  0  0  0  0  0  0  0  0  0  0
    1.9233   -1.1104    0.0000 C   0  0  0  0  0  0  0  0  0  0  0  0
    4.0668    0.1271    0.0000 C   0  0  0  0  0  0  0  0  0  0  0  0
    4.0668    0.9521    0.0000 C   0  0  0  0  0  0  0  0  0  0  0  0
    4.7812    1.3646    0.0000 C   0  0  0  0  0  0  0  0  0  0  0  0
    5.4957    0.9521    0.0000 C   0  0  0  0  0  0  0  0  0  0  0  0
    5.4957    0.1271    0.0000 C   0  0  0  0  0  0  0  0  0  0  0  0
    4.7812   -0.2854    0.0000 C   0  0  0  0  0  0  0  0  0  0  0  0
    6.2102    1.3646    0.0000 C   0  0  0  0  0  0  0  0  0  0  0  0
    6.2102    2.1896    0.0000 O   0  0  0  0  0  0  0  0  0  0  0  0
    6.9246    0.9521    0.0000 O   0  0  0  0  0  0  0  0  0  0  0  0
  1  2  1  0
  2  3  1  0
  3  4  1  0
  4  5  1  0
  5  6  1  0
  6  7  1  0
  2  7  1  0
  5  8  1  0
  8  9  2  0
  9 10  1  0
 10 11  2  0
 11 12  1  0
 12 13  1  0
 13 14  1  0
 14 15  2  0
 15 16  1  0
  8 16  1  0
 12 16  2  0
 14 17  1  0
 17 18  2  0
 18 19  1  0
 19 20  1  0
 20 21  2  0
 21 22  1  0
 22 23  2  0
 23 24  1  0
 24 25  2  0
 17 25  1  0
 20 25  1  0
 22 26  1  0
 26 27  2  0
 27 28  1  0
 28 29  2  0
 29 30  1  0
 30 31  2  0
 26 31  1  0
 29 32  1  0
 32 33  2  0
 32 34  1  0
M  END
>  <pIC50>  (346) 
5.00

>  <chembl_id>  (346) 
CHEMBL471791

>  <canonical_smiles>  (346) 
CN1CCN(CC1)c2cccc3[nH]c(nc23)c4n[nH]c5cc(ccc45)c6ccc(cc6)C(=O)O

$$$$
CHEMBL472148
     RDKit          2D

 34 39  0  0  0  0  0  0  0  0999 V2000
    4.1938   -5.3116    0.0000 C   0  0  0  0  0  0  0  0  0  0  0  0
    3.4092   -5.0567    0.0000 N   0  0  0  0  0  0  0  0  0  0  0  0
    2.7961   -5.6087    0.0000 C   0  0  0  0  0  0  0  0  0  0  0  0
    2.0115   -5.3538    0.0000 C   0  0  0  0  0  0  0  0  0  0  0  0
    1.8399   -4.5468    0.0000 N   0  0  0  0  0  0  0  0  0  0  0  0
    2.4530   -3.9948    0.0000 C   0  0  0  0  0  0  0  0  0  0  0  0
    3.2376   -4.2497    0.0000 C   0  0  0  0  0  0  0  0  0  0  0  0
    1.0553   -4.2919    0.0000 C   0  0  0  0  0  0  0  0  0  0  0  0
    0.4422   -4.8439    0.0000 C   0  0  0  0  0  0  0  0  0  0  0  0
   -0.3424   -4.5889    0.0000 C   0  0  0  0  0  0  0  0  0  0  0  0
   -0.5139   -3.7820    0.0000 C   0  0  0  0  0  0  0  0  0  0  0  0
    0.0992   -3.2299    0.0000 C   0  0  0  0  0  0  0  0  0  0  0  0
    0.0992   -2.4049    0.0000 N   0  0  0  0  0  0  0  0  0  0  0  0
    0.8838   -2.1500    0.0000 C   0  0  0  0  0  0  0  0  0  0  0  0
    1.3687   -2.8174    0.0000 N   0  0  0  0  0  0  0  0  0  0  0  0
    0.8838   -3.4849    0.0000 C   0  0  0  0  0  0  0  0  0  0  0  0
    1.1387   -1.3654    0.0000 C   0  0  0  0  0  0  0  0  0  0  0  0
    0.6538   -0.6979    0.0000 N   0  0  0  0  0  0  0  0  0  0  0  0
    1.1387   -0.0305    0.0000 N   0  0  0  0  0  0  0  0  0  0  0  0
    1.9233   -0.2854    0.0000 C   0  0  0  0  0  0  0  0  0  0  0  0
    2.6378    0.1271    0.0000 C   0  0  0  0  0  0  0  0  0  0  0  0
    3.3523   -0.2854    0.0000 C   0  0  0  0  0  0  0  0  0  0  0  0
    3.3523   -1.1104    0.0000 C   0  0  0  0  0  0  0  0  0  0  0  0
    2.6378   -1.5229    0.0000 C   0  0  0  0  0  0  0  0  0  0  0  0
    1.9233   -1.1104    0.0000 C   0  0  0  0  0  0  0  0  0  0  0  0
    4.0668    0.1271    0.0000 C   0  0  0  0  0  0  0  0  0  0  0  0
    4.0668    0.9521    0.0000 C   0  0  0  0  0  0  0  0  0  0  0  0
    4.7812    1.3646    0.0000 C   0  0  0  0  0  0  0  0  0  0  0  0
    5.4957    0.9521    0.0000 C   0  0  0  0  0  0  0  0  0  0  0  0
    5.4957    0.1271    0.0000 C   0  0  0  0  0  0  0  0  0  0  0  0
    4.7812   -0.2854    0.0000 C   0  0  0  0  0  0  0  0  0  0  0  0
    6.2102    1.3646    0.0000 C   0  0  0  0  0  0  0  0  0  0  0  0
    6.2102    2.1896    0.0000 O   0  0  0  0  0  0  0  0  0  0  0  0
    6.9246    0.9521    0.0000 C   0  0  0  0  0  0  0  0  0  0  0  0
  1  2  1  0
  2  3  1  0
  3  4  1  0
  4  5  1  0
  5  6  1  0
  6  7  1  0
  2  7  1  0
  5  8  1  0
  8  9  2  0
  9 10  1  0
 10 11  2  0
 11 12  1  0
 12 13  1  0
 13 14  1  0
 14 15  2  0
 15 16  1  0
  8 16  1  0
 12 16  2  0
 14 17  1  0
 17 18  2  0
 18 19  1  0
 19 20  1  0
 20 21  2  0
 21 22  1  0
 22 23  2  0
 23 24  1  0
 24 25  2  0
 17 25  1  0
 20 25  1  0
 22 26  1  0
 26 27  2  0
 27 28  1  0
 28 29  2  0
 29 30  1  0
 30 31  2  0
 26 31  1  0
 29 32  1  0
 32 33  2  0
 32 34  1  0
M  END
>  <pIC50>  (347) 
5.00

>  <chembl_id>  (347) 
CHEMBL472148

>  <canonical_smiles>  (347) 
CN1CCN(CC1)c2cccc3[nH]c(nc23)c4n[nH]c5cc(ccc45)c6ccc(cc6)C(=O)C

$$$$
CHEMBL473631
     RDKit          2D

 32 37  0  0  0  0  0  0  0  0999 V2000
    4.1938   -5.3116    0.0000 C   0  0  0  0  0  0  0  0  0  0  0  0
    3.4092   -5.0567    0.0000 N   0  0  0  0  0  0  0  0  0  0  0  0
    2.7961   -5.6087    0.0000 C   0  0  0  0  0  0  0  0  0  0  0  0
    2.0115   -5.3538    0.0000 C   0  0  0  0  0  0  0  0  0  0  0  0
    1.8399   -4.5468    0.0000 N   0  0  0  0  0  0  0  0  0  0  0  0
    2.4530   -3.9948    0.0000 C   0  0  0  0  0  0  0  0  0  0  0  0
    3.2376   -4.2497    0.0000 C   0  0  0  0  0  0  0  0  0  0  0  0
    1.0553   -4.2919    0.0000 C   0  0  0  0  0  0  0  0  0  0  0  0
    0.4422   -4.8439    0.0000 C   0  0  0  0  0  0  0  0  0  0  0  0
   -0.3424   -4.5889    0.0000 C   0  0  0  0  0  0  0  0  0  0  0  0
   -0.5139   -3.7820    0.0000 C   0  0  0  0  0  0  0  0  0  0  0  0
    0.0992   -3.2299    0.0000 C   0  0  0  0  0  0  0  0  0  0  0  0
    0.0992   -2.4049    0.0000 N   0  0  0  0  0  0  0  0  0  0  0  0
    0.8838   -2.1500    0.0000 C   0  0  0  0  0  0  0  0  0  0  0  0
    1.3687   -2.8174    0.0000 N   0  0  0  0  0  0  0  0  0  0  0  0
    0.8838   -3.4849    0.0000 C   0  0  0  0  0  0  0  0  0  0  0  0
    1.1387   -1.3654    0.0000 C   0  0  0  0  0  0  0  0  0  0  0  0
    0.6538   -0.6979    0.0000 N   0  0  0  0  0  0  0  0  0  0  0  0
    1.1387   -0.0305    0.0000 N   0  0  0  0  0  0  0  0  0  0  0  0
    1.9233   -0.2854    0.0000 C   0  0  0  0  0  0  0  0  0  0  0  0
    2.6378    0.1271    0.0000 C   0  0  0  0  0  0  0  0  0  0  0  0
    3.3523   -0.2854    0.0000 C   0  0  0  0  0  0  0  0  0  0  0  0
    3.3523   -1.1104    0.0000 C   0  0  0  0  0  0  0  0  0  0  0  0
    2.6378   -1.5229    0.0000 C   0  0  0  0  0  0  0  0  0  0  0  0
    1.9233   -1.1104    0.0000 C   0  0  0  0  0  0  0  0  0  0  0  0
    4.0668    0.1271    0.0000 C   0  0  0  0  0  0  0  0  0  0  0  0
    4.0668    0.9521    0.0000 C   0  0  0  0  0  0  0  0  0  0  0  0
    4.7812    1.3646    0.0000 C   0  0  0  0  0  0  0  0  0  0  0  0
    5.4957    0.9521    0.0000 C   0  0  0  0  0  0  0  0  0  0  0  0
    6.2102    1.3646    0.0000 O   0  0  0  0  0  0  0  0  0  0  0  0
    5.4957    0.1271    0.0000 C   0  0  0  0  0  0  0  0  0  0  0  0
    4.7812   -0.2854    0.0000 C   0  0  0  0  0  0  0  0  0  0  0  0
  1  2  1  0
  2  3  1  0
  3  4  1  0
  4  5  1  0
  5  6  1  0
  6  7  1  0
  2  7  1  0
  5  8  1  0
  8  9  2  0
  9 10  1  0
 10 11  2  0
 11 12  1  0
 12 13  1  0
 13 14  1  0
 14 15  2  0
 15 16  1  0
  8 16  1  0
 12 16  2  0
 14 17  1  0
 17 18  2  0
 18 19  1  0
 19 20  1  0
 20 21  2  0
 21 22  1  0
 22 23  2  0
 23 24  1  0
 24 25  2  0
 17 25  1  0
 20 25  1  0
 22 26  1  0
 26 27  2  0
 27 28  1  0
 28 29  2  0
 29 30  1  0
 29 31  1  0
 31 32  2  0
 26 32  1  0
M  END
>  <pIC50>  (348) 
7.88

>  <chembl_id>  (348) 
CHEMBL473631

>  <canonical_smiles>  (348) 
CN1CCN(CC1)c2cccc3[nH]c(nc23)c4n[nH]c5cc(ccc45)c6ccc(O)cc6

$$$$
CHEMBL474433
     RDKit          2D

 33 38  0  0  0  0  0  0  0  0999 V2000
    4.1938   -5.3116    0.0000 C   0  0  0  0  0  0  0  0  0  0  0  0
    3.4092   -5.0567    0.0000 N   0  0  0  0  0  0  0  0  0  0  0  0
    2.7961   -5.6087    0.0000 C   0  0  0  0  0  0  0  0  0  0  0  0
    2.0115   -5.3538    0.0000 C   0  0  0  0  0  0  0  0  0  0  0  0
    1.8399   -4.5468    0.0000 N   0  0  0  0  0  0  0  0  0  0  0  0
    2.4530   -3.9948    0.0000 C   0  0  0  0  0  0  0  0  0  0  0  0
    3.2376   -4.2497    0.0000 C   0  0  0  0  0  0  0  0  0  0  0  0
    1.0553   -4.2919    0.0000 C   0  0  0  0  0  0  0  0  0  0  0  0
    0.4422   -4.8439    0.0000 C   0  0  0  0  0  0  0  0  0  0  0  0
   -0.3424   -4.5889    0.0000 C   0  0  0  0  0  0  0  0  0  0  0  0
   -0.5139   -3.7820    0.0000 C   0  0  0  0  0  0  0  0  0  0  0  0
    0.0992   -3.2299    0.0000 C   0  0  0  0  0  0  0  0  0  0  0  0
    0.0992   -2.4049    0.0000 N   0  0  0  0  0  0  0  0  0  0  0  0
    0.8838   -2.1500    0.0000 C   0  0  0  0  0  0  0  0  0  0  0  0
    1.3687   -2.8174    0.0000 N   0  0  0  0  0  0  0  0  0  0  0  0
    0.8838   -3.4849    0.0000 C   0  0  0  0  0  0  0  0  0  0  0  0
    1.1387   -1.3654    0.0000 C   0  0  0  0  0  0  0  0  0  0  0  0
    0.6538   -0.6979    0.0000 N   0  0  0  0  0  0  0  0  0  0  0  0
    1.1387   -0.0305    0.0000 N   0  0  0  0  0  0  0  0  0  0  0  0
    1.9233   -0.2854    0.0000 C   0  0  0  0  0  0  0  0  0  0  0  0
    2.6378    0.1271    0.0000 C   0  0  0  0  0  0  0  0  0  0  0  0
    3.3523   -0.2854    0.0000 C   0  0  0  0  0  0  0  0  0  0  0  0
    3.3523   -1.1104    0.0000 C   0  0  0  0  0  0  0  0  0  0  0  0
    2.6378   -1.5229    0.0000 C   0  0  0  0  0  0  0  0  0  0  0  0
    1.9233   -1.1104    0.0000 C   0  0  0  0  0  0  0  0  0  0  0  0
    4.0668    0.1271    0.0000 C   0  0  0  0  0  0  0  0  0  0  0  0
    4.0668    0.9521    0.0000 C   0  0  0  0  0  0  0  0  0  0  0  0
    4.7812    1.3646    0.0000 C   0  0  0  0  0  0  0  0  0  0  0  0
    5.4957    0.9521    0.0000 C   0  0  0  0  0  0  0  0  0  0  0  0
    6.2102    1.3646    0.0000 C   0  0  0  0  0  0  0  0  0  0  0  0
    6.2102    2.1896    0.0000 N   0  0  0  0  0  0  0  0  0  0  0  0
    5.4957    0.1271    0.0000 C   0  0  0  0  0  0  0  0  0  0  0  0
    4.7812   -0.2854    0.0000 C   0  0  0  0  0  0  0  0  0  0  0  0
  1  2  1  0
  2  3  1  0
  3  4  1  0
  4  5  1  0
  5  6  1  0
  6  7  1  0
  2  7  1  0
  5  8  1  0
  8  9  2  0
  9 10  1  0
 10 11  2  0
 11 12  1  0
 12 13  1  0
 13 14  1  0
 14 15  2  0
 15 16  1  0
  8 16  1  0
 12 16  2  0
 14 17  1  0
 17 18  2  0
 18 19  1  0
 19 20  1  0
 20 21  2  0
 21 22  1  0
 22 23  2  0
 23 24  1  0
 24 25  2  0
 17 25  1  0
 20 25  1  0
 22 26  1  0
 26 27  2  0
 27 28  1  0
 28 29  2  0
 29 30  1  0
 30 31  1  0
 29 32  1  0
 32 33  2  0
 26 33  1  0
M  END
>  <pIC50>  (349) 
5.00

>  <chembl_id>  (349) 
CHEMBL474433

>  <canonical_smiles>  (349) 
CN1CCN(CC1)c2cccc3[nH]c(nc23)c4n[nH]c5cc(ccc45)c6ccc(CN)cc6

$$$$
CHEMBL474441
     RDKit          2D

 33 38  0  0  0  0  0  0  0  0999 V2000
   -5.1193    3.0268    0.0000 C   0  0  0  0  0  0  0  0  0  0  0  0
   -4.3347    3.2817    0.0000 N   0  0  0  0  0  0  0  0  0  0  0  0
   -3.7216    2.7297    0.0000 C   0  0  0  0  0  0  0  0  0  0  0  0
   -2.9370    2.9846    0.0000 C   0  0  0  0  0  0  0  0  0  0  0  0
   -2.3239    2.4326    0.0000 C   0  0  0  0  0  0  0  0  0  0  0  0
   -2.4954    1.6256    0.0000 C   0  0  0  0  0  0  0  0  0  0  0  0
   -3.2800    1.3707    0.0000 C   0  0  0  0  0  0  0  0  0  0  0  0
   -3.8931    1.9227    0.0000 C   0  0  0  0  0  0  0  0  0  0  0  0
   -1.8823    1.0736    0.0000 C   0  0  0  0  0  0  0  0  0  0  0  0
   -1.0977    1.3285    0.0000 C   0  0  0  0  0  0  0  0  0  0  0  0
   -0.4846    0.7765    0.0000 C   0  0  0  0  0  0  0  0  0  0  0  0
   -0.6561   -0.0305    0.0000 C   0  0  0  0  0  0  0  0  0  0  0  0
   -0.1712   -0.6979    0.0000 C   0  0  0  0  0  0  0  0  0  0  0  0
   -0.6561   -1.3654    0.0000 N   0  0  0  0  0  0  0  0  0  0  0  0
   -1.4407   -1.1104    0.0000 N   0  0  0  0  0  0  0  0  0  0  0  0
   -1.4407   -0.2854    0.0000 C   0  0  0  0  0  0  0  0  0  0  0  0
   -2.0538    0.2666    0.0000 C   0  0  0  0  0  0  0  0  0  0  0  0
    0.6538   -0.6979    0.0000 C   0  0  0  0  0  0  0  0  0  0  0  0
    1.1387   -0.0305    0.0000 N   0  0  0  0  0  0  0  0  0  0  0  0
    1.9233   -0.2854    0.0000 C   0  0  0  0  0  0  0  0  0  0  0  0
    2.6378    0.1271    0.0000 C   0  0  0  0  0  0  0  0  0  0  0  0
    3.3523   -0.2854    0.0000 C   0  0  0  0  0  0  0  0  0  0  0  0
    3.3523   -1.1104    0.0000 C   0  0  0  0  0  0  0  0  0  0  0  0
    2.6378   -1.5229    0.0000 C   0  0  0  0  0  0  0  0  0  0  0  0
    1.9233   -1.1104    0.0000 C   0  0  0  0  0  0  0  0  0  0  0  0
    1.1387   -1.3654    0.0000 N   0  0  0  0  0  0  0  0  0  0  0  0
    2.6378    0.9521    0.0000 N   0  0  0  0  0  0  0  0  0  0  0  0
    1.9233    1.3646    0.0000 C   0  0  0  0  0  0  0  0  0  0  0  0
    1.9233    2.1896    0.0000 C   0  0  0  0  0  0  0  0  0  0  0  0
    2.6378    2.6021    0.0000 N   0  0  0  0  0  0  0  0  0  0  0  0
    2.6378    3.4271    0.0000 C   0  0  0  0  0  0  0  0  0  0  0  0
    3.3523    2.1896    0.0000 C   0  0  0  0  0  0  0  0  0  0  0  0
    3.3523    1.3646    0.0000 C   0  0  0  0  0  0  0  0  0  0  0  0
  1  2  1  0
  2  3  1  0
  3  4  2  0
  4  5  1  0
  5  6  2  0
  6  7  1  0
  7  8  2  0
  3  8  1  0
  6  9  1  0
  9 10  2  0
 10 11  1  0
 11 12  2  0
 12 13  1  0
 13 14  2  0
 14 15  1  0
 15 16  1  0
 12 16  1  0
 16 17  2  0
  9 17  1  0
 13 18  1  0
 18 19  2  0
 19 20  1  0
 20 21  2  0
 21 22  1  0
 22 23  2  0
 23 24  1  0
 24 25  2  0
 20 25  1  0
 25 26  1  0
 18 26  1  0
 21 27  1  0
 27 28  1  0
 28 29  1  0
 29 30  1  0
 30 31  1  0
 30 32  1  0
 32 33  1  0
 27 33  1  0
M  END
>  <pIC50>  (350) 
3.96

>  <chembl_id>  (350) 
CHEMBL474441

>  <canonical_smiles>  (350) 
CNc1ccc(cc1)c2ccc3c(n[nH]c3c2)c4nc5c(cccc5[nH]4)N6CCN(C)CC6

$$$$
CHEMBL474600
     RDKit          2D

 35 40  0  0  0  0  0  0  0  0999 V2000
    4.1938   -5.3116    0.0000 C   0  0  0  0  0  0  0  0  0  0  0  0
    3.4092   -5.0567    0.0000 N   0  0  0  0  0  0  0  0  0  0  0  0
    2.7961   -5.6087    0.0000 C   0  0  0  0  0  0  0  0  0  0  0  0
    2.0115   -5.3538    0.0000 C   0  0  0  0  0  0  0  0  0  0  0  0
    1.8399   -4.5468    0.0000 N   0  0  0  0  0  0  0  0  0  0  0  0
    2.4530   -3.9948    0.0000 C   0  0  0  0  0  0  0  0  0  0  0  0
    3.2376   -4.2497    0.0000 C   0  0  0  0  0  0  0  0  0  0  0  0
    1.0553   -4.2919    0.0000 C   0  0  0  0  0  0  0  0  0  0  0  0
    0.4422   -4.8439    0.0000 C   0  0  0  0  0  0  0  0  0  0  0  0
   -0.3424   -4.5889    0.0000 C   0  0  0  0  0  0  0  0  0  0  0  0
   -0.5139   -3.7820    0.0000 C   0  0  0  0  0  0  0  0  0  0  0  0
    0.0992   -3.2299    0.0000 C   0  0  0  0  0  0  0  0  0  0  0  0
    0.0992   -2.4049    0.0000 N   0  0  0  0  0  0  0  0  0  0  0  0
    0.8838   -2.1500    0.0000 C   0  0  0  0  0  0  0  0  0  0  0  0
    1.3687   -2.8174    0.0000 N   0  0  0  0  0  0  0  0  0  0  0  0
    0.8838   -3.4849    0.0000 C   0  0  0  0  0  0  0  0  0  0  0  0
    1.1387   -1.3654    0.0000 C   0  0  0  0  0  0  0  0  0  0  0  0
    0.6538   -0.6979    0.0000 N   0  0  0  0  0  0  0  0  0  0  0  0
    1.1387   -0.0305    0.0000 N   0  0  0  0  0  0  0  0  0  0  0  0
    1.9233   -0.2854    0.0000 C   0  0  0  0  0  0  0  0  0  0  0  0
    2.6378    0.1271    0.0000 C   0  0  0  0  0  0  0  0  0  0  0  0
    3.3523   -0.2854    0.0000 C   0  0  0  0  0  0  0  0  0  0  0  0
    3.3523   -1.1104    0.0000 C   0  0  0  0  0  0  0  0  0  0  0  0
    2.6378   -1.5229    0.0000 C   0  0  0  0  0  0  0  0  0  0  0  0
    1.9233   -1.1104    0.0000 C   0  0  0  0  0  0  0  0  0  0  0  0
    4.0668    0.1271    0.0000 C   0  0  0  0  0  0  0  0  0  0  0  0
    4.0668    0.9521    0.0000 C   0  0  0  0  0  0  0  0  0  0  0  0
    4.7812    1.3646    0.0000 C   0  0  0  0  0  0  0  0  0  0  0  0
    5.4957    0.9521    0.0000 C   0  0  0  0  0  0  0  0  0  0  0  0
    6.2102    1.3646    0.0000 N   0  0  0  0  0  0  0  0  0  0  0  0
    6.9246    0.9521    0.0000 C   0  0  0  0  0  0  0  0  0  0  0  0
    7.6391    1.3646    0.0000 O   0  0  0  0  0  0  0  0  0  0  0  0
    6.9246    0.1271    0.0000 C   0  0  0  0  0  0  0  0  0  0  0  0
    5.4957    0.1271    0.0000 C   0  0  0  0  0  0  0  0  0  0  0  0
    4.7812   -0.2854    0.0000 C   0  0  0  0  0  0  0  0  0  0  0  0
  1  2  1  0
  2  3  1  0
  3  4  1  0
  4  5  1  0
  5  6  1  0
  6  7  1  0
  2  7  1  0
  5  8  1  0
  8  9  2  0
  9 10  1  0
 10 11  2  0
 11 12  1  0
 12 13  1  0
 13 14  1  0
 14 15  2  0
 15 16  1  0
  8 16  1  0
 12 16  2  0
 14 17  1  0
 17 18  2  0
 18 19  1  0
 19 20  1  0
 20 21  2  0
 21 22  1  0
 22 23  2  0
 23 24  1  0
 24 25  2  0
 17 25  1  0
 20 25  1  0
 22 26  1  0
 26 27  2  0
 27 28  1  0
 28 29  2  0
 29 30  1  0
 30 31  1  0
 31 32  2  0
 31 33  1  0
 29 34  1  0
 34 35  2  0
 26 35  1  0
M  END
>  <pIC50>  (351) 
5.00

>  <chembl_id>  (351) 
CHEMBL474600

>  <canonical_smiles>  (351) 
CN1CCN(CC1)c2cccc3[nH]c(nc23)c4n[nH]c5cc(ccc45)c6ccc(NC(=O)C)cc6

$$$$
CHEMBL474619
     RDKit          2D

 34 39  0  0  0  0  0  0  0  0999 V2000
   -2.8385    0.0117    0.0000 C   0  0  0  0  0  0  0  0  0  0  0  0
   -3.4516    0.5637    0.0000 O   0  0  0  0  0  0  0  0  0  0  0  0
   -3.2800    1.3707    0.0000 C   0  0  0  0  0  0  0  0  0  0  0  0
   -3.8931    1.9227    0.0000 C   0  0  0  0  0  0  0  0  0  0  0  0
   -3.7216    2.7297    0.0000 C   0  0  0  0  0  0  0  0  0  0  0  0
   -4.3347    3.2817    0.0000 O   0  0  0  0  0  0  0  0  0  0  0  0
   -2.9370    2.9846    0.0000 C   0  0  0  0  0  0  0  0  0  0  0  0
   -2.3239    2.4326    0.0000 C   0  0  0  0  0  0  0  0  0  0  0  0
   -2.4954    1.6256    0.0000 C   0  0  0  0  0  0  0  0  0  0  0  0
   -1.8823    1.0736    0.0000 C   0  0  0  0  0  0  0  0  0  0  0  0
   -1.0977    1.3285    0.0000 C   0  0  0  0  0  0  0  0  0  0  0  0
   -0.4846    0.7765    0.0000 C   0  0  0  0  0  0  0  0  0  0  0  0
   -0.6561   -0.0305    0.0000 C   0  0  0  0  0  0  0  0  0  0  0  0
   -0.1712   -0.6979    0.0000 C   0  0  0  0  0  0  0  0  0  0  0  0
   -0.6561   -1.3654    0.0000 N   0  0  0  0  0  0  0  0  0  0  0  0
   -1.4407   -1.1104    0.0000 N   0  0  0  0  0  0  0  0  0  0  0  0
   -1.4407   -0.2854    0.0000 C   0  0  0  0  0  0  0  0  0  0  0  0
   -2.0538    0.2666    0.0000 C   0  0  0  0  0  0  0  0  0  0  0  0
    0.6538   -0.6979    0.0000 C   0  0  0  0  0  0  0  0  0  0  0  0
    1.1387   -0.0305    0.0000 N   0  0  0  0  0  0  0  0  0  0  0  0
    1.9233   -0.2854    0.0000 C   0  0  0  0  0  0  0  0  0  0  0  0
    2.6378    0.1271    0.0000 C   0  0  0  0  0  0  0  0  0  0  0  0
    3.3523   -0.2854    0.0000 C   0  0  0  0  0  0  0  0  0  0  0  0
    3.3523   -1.1104    0.0000 C   0  0  0  0  0  0  0  0  0  0  0  0
    2.6378   -1.5229    0.0000 C   0  0  0  0  0  0  0  0  0  0  0  0
    1.9233   -1.1104    0.0000 C   0  0  0  0  0  0  0  0  0  0  0  0
    1.1387   -1.3654    0.0000 N   0  0  0  0  0  0  0  0  0  0  0  0
    2.6378    0.9521    0.0000 N   0  0  0  0  0  0  0  0  0  0  0  0
    1.9233    1.3646    0.0000 C   0  0  0  0  0  0  0  0  0  0  0  0
    1.9233    2.1896    0.0000 C   0  0  0  0  0  0  0  0  0  0  0  0
    2.6378    2.6021    0.0000 N   0  0  0  0  0  0  0  0  0  0  0  0
    2.6378    3.4271    0.0000 C   0  0  0  0  0  0  0  0  0  0  0  0
    3.3523    2.1896    0.0000 C   0  0  0  0  0  0  0  0  0  0  0  0
    3.3523    1.3646    0.0000 C   0  0  0  0  0  0  0  0  0  0  0  0
  1  2  1  0
  2  3  1  0
  3  4  2  0
  4  5  1  0
  5  6  1  0
  5  7  2  0
  7  8  1  0
  8  9  2  0
  3  9  1  0
  9 10  1  0
 10 11  2  0
 11 12  1  0
 12 13  2  0
 13 14  1  0
 14 15  2  0
 15 16  1  0
 16 17  1  0
 13 17  1  0
 17 18  2  0
 10 18  1  0
 14 19  1  0
 19 20  2  0
 20 21  1  0
 21 22  2  0
 22 23  1  0
 23 24  2  0
 24 25  1  0
 25 26  2  0
 21 26  1  0
 26 27  1  0
 19 27  1  0
 22 28  1  0
 28 29  1  0
 29 30  1  0
 30 31  1  0
 31 32  1  0
 31 33  1  0
 33 34  1  0
 28 34  1  0
M  END
>  <pIC50>  (352) 
6.99

>  <chembl_id>  (352) 
CHEMBL474619

>  <canonical_smiles>  (352) 
COc1cc(O)ccc1c2ccc3c(n[nH]c3c2)c4nc5c(cccc5[nH]4)N6CCN(C)CC6

$$$$
CHEMBL474724
     RDKit          2D

 34 39  0  0  0  0  0  0  0  0999 V2000
   -3.5843   -5.2972    0.0000 C   0  0  0  0  0  0  0  0  0  0  0  0
   -2.8698   -5.7097    0.0000 C   0  0  0  0  0  0  0  0  0  0  0  0
   -2.1554   -5.2972    0.0000 N   0  0  0  0  0  0  0  0  0  0  0  0
   -1.4409   -5.7097    0.0000 C   0  0  0  0  0  0  0  0  0  0  0  0
   -1.4409   -6.5347    0.0000 N   0  0  0  0  0  0  0  0  0  0  0  0
   -0.7264   -5.2972    0.0000 S   0  0  0  0  0  0  0  0  0  0  0  0
   -0.0120   -5.7097    0.0000 C   0  0  0  0  0  0  0  0  0  0  0  0
    0.7025   -5.2972    0.0000 C   0  0  0  0  0  0  0  0  0  0  0  0
    1.4170   -5.7097    0.0000 C   0  0  0  0  0  0  0  0  0  0  0  0
    2.1315   -5.2972    0.0000 N   0  0  0  0  0  0  0  0  0  0  0  0
    2.8851   -5.6327    0.0000 C   0  0  0  0  0  0  0  0  0  0  0  0
    3.0567   -6.4397    0.0000 O   0  0  0  0  0  0  0  0  0  0  0  0
    3.4372   -5.0196    0.0000 C   0  0  0  0  0  0  0  0  0  0  0  0
    3.0247   -4.3051    0.0000 C   0  0  0  0  0  0  0  0  0  0  0  0
    2.2177   -4.4767    0.0000 C   0  0  0  0  0  0  0  0  0  0  0  0
    1.6046   -3.9246    0.0000 O   0  0  0  0  0  0  0  0  0  0  0  0
    3.3261   -3.5372    0.0000 N   0  0  0  0  0  0  0  0  0  0  0  0
    2.8512   -2.8626    0.0000 C   0  0  0  0  0  0  0  0  0  0  0  0
    3.3460   -2.2024    0.0000 C   0  0  0  0  0  0  0  0  0  0  0  0
    4.1268   -2.4691    0.0000 C   0  0  0  0  0  0  0  0  0  0  0  0
    4.8473   -2.0673    0.0000 C   0  0  0  0  0  0  0  0  0  0  0  0
    5.5555   -2.4905    0.0000 C   0  0  0  0  0  0  0  0  0  0  0  0
    5.5432   -3.3154    0.0000 C   0  0  0  0  0  0  0  0  0  0  0  0
    4.7961   -3.7587    0.0000 C   0  0  0  0  0  0  0  0  0  0  0  0
    4.8577   -4.5814    0.0000 C   0  0  0  0  0  0  0  0  0  0  0  0
    5.5783   -4.9832    0.0000 C   0  0  0  0  0  0  0  0  0  0  0  0
    5.4188   -5.7926    0.0000 C   0  0  0  0  0  0  0  0  0  0  0  0
    5.9137   -6.4528    0.0000 C   0  0  0  0  0  0  0  0  0  0  0  0
    5.5895   -7.2114    0.0000 C   0  0  0  0  0  0  0  0  0  0  0  0
    4.7704   -7.3099    0.0000 C   0  0  0  0  0  0  0  0  0  0  0  0
    4.2755   -6.6498    0.0000 C   0  0  0  0  0  0  0  0  0  0  0  0
    4.5998   -5.8911    0.0000 C   0  0  0  0  0  0  0  0  0  0  0  0
    4.2530   -5.1426    0.0000 N   0  0  0  0  0  0  0  0  0  0  0  0
    4.1144   -3.2940    0.0000 C   0  0  0  0  0  0  0  0  0  0  0  0
  1  2  1  0
  2  3  1  0
  3  4  1  0
  4  5  2  0
  4  6  1  0
  6  7  1  0
  7  8  1  0
  8  9  1  0
  9 10  1  0
 10 11  1  0
 11 12  2  0
 11 13  1  0
 13 14  2  0
 14 15  1  0
 10 15  1  0
 15 16  2  0
 14 17  1  0
 17 18  1  0
 18 19  2  0
 19 20  1  0
 20 21  2  0
 21 22  1  0
 22 23  2  0
 23 24  1  0
 24 25  1  0
 25 26  1  0
 26 27  1  0
 27 28  2  0
 28 29  1  0
 29 30  2  0
 30 31  1  0
 31 32  2  0
 27 32  1  0
 32 33  1  0
 13 33  1  0
 25 33  1  0
 24 34  2  0
 17 34  1  0
 20 34  1  0
M  END
>  <pIC50>  (353) 
5.17

>  <chembl_id>  (353) 
CHEMBL474724

>  <canonical_smiles>  (353) 
CCNC(=N)SCCCN1C(=O)C2=C(C1=O)n3ccc4cccc(C5Cc6ccccc6N25)c34

$$$$
CHEMBL474807
     RDKit          2D

 33 38  0  0  0  0  0  0  0  0999 V2000
    4.1938   -5.3116    0.0000 C   0  0  0  0  0  0  0  0  0  0  0  0
    3.4092   -5.0567    0.0000 N   0  0  0  0  0  0  0  0  0  0  0  0
    2.7961   -5.6087    0.0000 C   0  0  0  0  0  0  0  0  0  0  0  0
    2.0115   -5.3538    0.0000 C   0  0  0  0  0  0  0  0  0  0  0  0
    1.8399   -4.5468    0.0000 N   0  0  0  0  0  0  0  0  0  0  0  0
    2.4530   -3.9948    0.0000 C   0  0  0  0  0  0  0  0  0  0  0  0
    3.2376   -4.2497    0.0000 C   0  0  0  0  0  0  0  0  0  0  0  0
    1.0553   -4.2919    0.0000 C   0  0  0  0  0  0  0  0  0  0  0  0
    0.4422   -4.8439    0.0000 C   0  0  0  0  0  0  0  0  0  0  0  0
   -0.3424   -4.5889    0.0000 C   0  0  0  0  0  0  0  0  0  0  0  0
   -0.5139   -3.7820    0.0000 C   0  0  0  0  0  0  0  0  0  0  0  0
    0.0992   -3.2299    0.0000 C   0  0  0  0  0  0  0  0  0  0  0  0
    0.0992   -2.4049    0.0000 N   0  0  0  0  0  0  0  0  0  0  0  0
    0.8838   -2.1500    0.0000 C   0  0  0  0  0  0  0  0  0  0  0  0
    1.3687   -2.8174    0.0000 N   0  0  0  0  0  0  0  0  0  0  0  0
    0.8838   -3.4849    0.0000 C   0  0  0  0  0  0  0  0  0  0  0  0
    1.1387   -1.3654    0.0000 C   0  0  0  0  0  0  0  0  0  0  0  0
    0.6538   -0.6979    0.0000 N   0  0  0  0  0  0  0  0  0  0  0  0
    1.1387   -0.0305    0.0000 N   0  0  0  0  0  0  0  0  0  0  0  0
    1.9233   -0.2854    0.0000 C   0  0  0  0  0  0  0  0  0  0  0  0
    2.6378    0.1271    0.0000 C   0  0  0  0  0  0  0  0  0  0  0  0
    3.3523   -0.2854    0.0000 C   0  0  0  0  0  0  0  0  0  0  0  0
    3.3523   -1.1104    0.0000 C   0  0  0  0  0  0  0  0  0  0  0  0
    2.6378   -1.5229    0.0000 C   0  0  0  0  0  0  0  0  0  0  0  0
    1.9233   -1.1104    0.0000 C   0  0  0  0  0  0  0  0  0  0  0  0
    4.0668    0.1271    0.0000 C   0  0  0  0  0  0  0  0  0  0  0  0
    4.0668    0.9521    0.0000 C   0  0  0  0  0  0  0  0  0  0  0  0
    4.7812    1.3646    0.0000 C   0  0  0  0  0  0  0  0  0  0  0  0
    5.4957    0.9521    0.0000 C   0  0  0  0  0  0  0  0  0  0  0  0
    6.2102    1.3646    0.0000 C   0  0  0  0  0  0  0  0  0  0  0  0
    6.2102    2.1896    0.0000 O   0  0  0  0  0  0  0  0  0  0  0  0
    5.4957    0.1271    0.0000 C   0  0  0  0  0  0  0  0  0  0  0  0
    4.7812   -0.2854    0.0000 C   0  0  0  0  0  0  0  0  0  0  0  0
  1  2  1  0
  2  3  1  0
  3  4  1  0
  4  5  1  0
  5  6  1  0
  6  7  1  0
  2  7  1  0
  5  8  1  0
  8  9  2  0
  9 10  1  0
 10 11  2  0
 11 12  1  0
 12 13  1  0
 13 14  1  0
 14 15  2  0
 15 16  1  0
  8 16  1  0
 12 16  2  0
 14 17  1  0
 17 18  2  0
 18 19  1  0
 19 20  1  0
 20 21  2  0
 21 22  1  0
 22 23  2  0
 23 24  1  0
 24 25  2  0
 17 25  1  0
 20 25  1  0
 22 26  1  0
 26 27  2  0
 27 28  1  0
 28 29  2  0
 29 30  1  0
 30 31  1  0
 29 32  1  0
 32 33  2  0
 26 33  1  0
M  END
>  <pIC50>  (354) 
4.67

>  <chembl_id>  (354) 
CHEMBL474807

>  <canonical_smiles>  (354) 
CN1CCN(CC1)c2cccc3[nH]c(nc23)c4n[nH]c5cc(ccc45)c6ccc(CO)cc6

$$$$
CHEMBL475640
     RDKit          2D

 35 40  0  0  0  0  0  0  0  0999 V2000
   -5.1193    3.0268    0.0000 C   0  0  0  0  0  0  0  0  0  0  0  0
   -4.3347    3.2817    0.0000 O   0  0  0  0  0  0  0  0  0  0  0  0
   -3.7216    2.7297    0.0000 C   0  0  0  0  0  0  0  0  0  0  0  0
   -2.9370    2.9846    0.0000 C   0  0  0  0  0  0  0  0  0  0  0  0
   -2.3239    2.4326    0.0000 C   0  0  0  0  0  0  0  0  0  0  0  0
   -2.4954    1.6256    0.0000 C   0  0  0  0  0  0  0  0  0  0  0  0
   -3.2800    1.3707    0.0000 C   0  0  0  0  0  0  0  0  0  0  0  0
   -3.4516    0.5637    0.0000 O   0  0  0  0  0  0  0  0  0  0  0  0
   -4.2362    0.3087    0.0000 C   0  0  0  0  0  0  0  0  0  0  0  0
   -3.8931    1.9227    0.0000 C   0  0  0  0  0  0  0  0  0  0  0  0
   -1.8823    1.0736    0.0000 C   0  0  0  0  0  0  0  0  0  0  0  0
   -1.0977    1.3285    0.0000 C   0  0  0  0  0  0  0  0  0  0  0  0
   -0.4846    0.7765    0.0000 C   0  0  0  0  0  0  0  0  0  0  0  0
   -0.6561   -0.0305    0.0000 C   0  0  0  0  0  0  0  0  0  0  0  0
   -0.1712   -0.6979    0.0000 C   0  0  0  0  0  0  0  0  0  0  0  0
   -0.6561   -1.3654    0.0000 N   0  0  0  0  0  0  0  0  0  0  0  0
   -1.4407   -1.1104    0.0000 N   0  0  0  0  0  0  0  0  0  0  0  0
   -1.4407   -0.2854    0.0000 C   0  0  0  0  0  0  0  0  0  0  0  0
   -2.0538    0.2666    0.0000 C   0  0  0  0  0  0  0  0  0  0  0  0
    0.6538   -0.6979    0.0000 C   0  0  0  0  0  0  0  0  0  0  0  0
    1.1387   -0.0305    0.0000 N   0  0  0  0  0  0  0  0  0  0  0  0
    1.9233   -0.2854    0.0000 C   0  0  0  0  0  0  0  0  0  0  0  0
    2.6378    0.1271    0.0000 C   0  0  0  0  0  0  0  0  0  0  0  0
    3.3523   -0.2854    0.0000 C   0  0  0  0  0  0  0  0  0  0  0  0
    3.3523   -1.1104    0.0000 C   0  0  0  0  0  0  0  0  0  0  0  0
    2.6378   -1.5229    0.0000 C   0  0  0  0  0  0  0  0  0  0  0  0
    1.9233   -1.1104    0.0000 C   0  0  0  0  0  0  0  0  0  0  0  0
    1.1387   -1.3654    0.0000 N   0  0  0  0  0  0  0  0  0  0  0  0
    2.6378    0.9521    0.0000 N   0  0  0  0  0  0  0  0  0  0  0  0
    1.9233    1.3646    0.0000 C   0  0  0  0  0  0  0  0  0  0  0  0
    1.9233    2.1896    0.0000 C   0  0  0  0  0  0  0  0  0  0  0  0
    2.6378    2.6021    0.0000 N   0  0  0  0  0  0  0  0  0  0  0  0
    2.6378    3.4271    0.0000 C   0  0  0  0  0  0  0  0  0  0  0  0
    3.3523    2.1896    0.0000 C   0  0  0  0  0  0  0  0  0  0  0  0
    3.3523    1.3646    0.0000 C   0  0  0  0  0  0  0  0  0  0  0  0
  1  2  1  0
  2  3  1  0
  3  4  2  0
  4  5  1  0
  5  6  2  0
  6  7  1  0
  7  8  1  0
  8  9  1  0
  7 10  2  0
  3 10  1  0
  6 11  1  0
 11 12  2  0
 12 13  1  0
 13 14  2  0
 14 15  1  0
 15 16  2  0
 16 17  1  0
 17 18  1  0
 14 18  1  0
 18 19  2  0
 11 19  1  0
 15 20  1  0
 20 21  2  0
 21 22  1  0
 22 23  2  0
 23 24  1  0
 24 25  2  0
 25 26  1  0
 26 27  2  0
 22 27  1  0
 27 28  1  0
 20 28  1  0
 23 29  1  0
 29 30  1  0
 30 31  1  0
 31 32  1  0
 32 33  1  0
 32 34  1  0
 34 35  1  0
 29 35  1  0
M  END
>  <pIC50>  (355) 
5.00

>  <chembl_id>  (355) 
CHEMBL475640

>  <canonical_smiles>  (355) 
COc1ccc(c(OC)c1)c2ccc3c(n[nH]c3c2)c4nc5c(cccc5[nH]4)N6CCN(C)CC6

$$$$
CHEMBL480384
     RDKit          2D

 35 41  0  0  0  0  0  0  0  0999 V2000
   -3.9320   -3.2419    0.0000 C   0  0  0  0  0  0  0  0  0  0  0  0
   -4.1036   -2.4349    0.0000 N   0  0  0  0  0  0  0  0  0  0  0  0
   -4.8882   -2.1799    0.0000 C   0  0  0  0  0  0  0  0  0  0  0  0
   -5.0597   -1.3730    0.0000 C   0  0  0  0  0  0  0  0  0  0  0  0
   -4.4466   -0.8209    0.0000 N   0  0  0  0  0  0  0  0  0  0  0  0
   -3.6620   -1.0759    0.0000 C   0  0  0  0  0  0  0  0  0  0  0  0
   -3.4905   -1.8828    0.0000 C   0  0  0  0  0  0  0  0  0  0  0  0
   -4.6181   -0.0140    0.0000 C   0  0  0  0  0  0  0  0  0  0  0  0
   -5.4028    0.2410    0.0000 C   0  0  0  0  0  0  0  0  0  0  0  0
   -5.5743    1.0479    0.0000 C   0  0  0  0  0  0  0  0  0  0  0  0
   -4.9612    1.6000    0.0000 C   0  0  0  0  0  0  0  0  0  0  0  0
   -4.1766    1.3450    0.0000 C   0  0  0  0  0  0  0  0  0  0  0  0
   -3.4621    1.7575    0.0000 N   0  0  0  0  0  0  0  0  0  0  0  0
   -2.8490    1.2055    0.0000 C   0  0  0  0  0  0  0  0  0  0  0  0
   -3.1846    0.4518    0.0000 N   0  0  0  0  0  0  0  0  0  0  0  0
   -4.0050    0.5381    0.0000 C   0  0  0  0  0  0  0  0  0  0  0  0
   -2.0420    1.3770    0.0000 C   0  0  0  0  0  0  0  0  0  0  0  0
   -1.7065    2.1307    0.0000 N   0  0  0  0  0  0  0  0  0  0  0  0
   -0.8860    2.0445    0.0000 N   0  0  0  0  0  0  0  0  0  0  0  0
   -0.7145    1.2375    0.0000 C   0  0  0  0  0  0  0  0  0  0  0  0
    0.0000    0.8250    0.0000 C   0  0  0  0  0  0  0  0  0  0  0  0
    0.0000    0.0000    0.0000 C   0  0  0  0  0  0  0  0  0  0  0  0
   -0.7145   -0.4125    0.0000 C   0  0  0  0  0  0  0  0  0  0  0  0
   -1.4289    0.0000    0.0000 C   0  0  0  0  0  0  0  0  0  0  0  0
   -1.4289    0.8250    0.0000 C   0  0  0  0  0  0  0  0  0  0  0  0
    0.7145   -0.4125    0.0000 C   0  0  0  0  0  0  0  0  0  0  0  0
    1.4289    0.0000    0.0000 C   0  0  0  0  0  0  0  0  0  0  0  0
    2.1434   -0.4125    0.0000 C   0  0  0  0  0  0  0  0  0  0  0  0
    2.8579    0.0000    0.0000 C   0  0  0  0  0  0  0  0  0  0  0  0
    3.5724   -0.4125    0.0000 C   0  0  0  0  0  0  0  0  0  0  0  0
    3.5724   -1.2375    0.0000 C   0  0  0  0  0  0  0  0  0  0  0  0
    2.8579   -1.6500    0.0000 N   0  0  0  0  0  0  0  0  0  0  0  0
    2.1434   -1.2375    0.0000 C   0  0  0  0  0  0  0  0  0  0  0  0
    1.4289   -1.6500    0.0000 C   0  0  0  0  0  0  0  0  0  0  0  0
    0.7145   -1.2375    0.0000 C   0  0  0  0  0  0  0  0  0  0  0  0
  1  2  1  0
  2  3  1  0
  3  4  1  0
  4  5  1  0
  5  6  1  0
  6  7  1  0
  2  7  1  0
  5  8  1  0
  8  9  2  0
  9 10  1  0
 10 11  2  0
 11 12  1  0
 12 13  1  0
 13 14  1  0
 14 15  2  0
 15 16  1  0
  8 16  1  0
 12 16  2  0
 14 17  1  0
 17 18  2  0
 18 19  1  0
 19 20  1  0
 20 21  2  0
 21 22  1  0
 22 23  2  0
 23 24  1  0
 24 25  2  0
 17 25  1  0
 20 25  1  0
 22 26  1  0
 26 27  2  0
 27 28  1  0
 28 29  2  0
 29 30  1  0
 30 31  1  0
 31 32  2  0
 32 33  1  0
 28 33  1  0
 33 34  1  0
 34 35  2  0
 26 35  1  0
M  END
>  <pIC50>  (356) 
5.00

>  <chembl_id>  (356) 
CHEMBL480384

>  <canonical_smiles>  (356) 
CN1CCN(CC1)c2cccc3[nH]c(nc23)c4n[nH]c5cc(ccc45)C6=CC7=CC=CNC7C=C6

$$$$
CHEMBL480391
     RDKit          2D

 32 37  0  0  0  0  0  0  0  0999 V2000
    4.1938   -5.3116    0.0000 C   0  0  0  0  0  0  0  0  0  0  0  0
    3.4092   -5.0567    0.0000 N   0  0  0  0  0  0  0  0  0  0  0  0
    2.7961   -5.6087    0.0000 C   0  0  0  0  0  0  0  0  0  0  0  0
    2.0115   -5.3538    0.0000 C   0  0  0  0  0  0  0  0  0  0  0  0
    1.8399   -4.5468    0.0000 N   0  0  0  0  0  0  0  0  0  0  0  0
    2.4530   -3.9948    0.0000 C   0  0  0  0  0  0  0  0  0  0  0  0
    3.2376   -4.2497    0.0000 C   0  0  0  0  0  0  0  0  0  0  0  0
    1.0553   -4.2919    0.0000 C   0  0  0  0  0  0  0  0  0  0  0  0
    0.4422   -4.8439    0.0000 C   0  0  0  0  0  0  0  0  0  0  0  0
   -0.3424   -4.5889    0.0000 C   0  0  0  0  0  0  0  0  0  0  0  0
   -0.5139   -3.7820    0.0000 C   0  0  0  0  0  0  0  0  0  0  0  0
    0.0992   -3.2299    0.0000 C   0  0  0  0  0  0  0  0  0  0  0  0
    0.0992   -2.4049    0.0000 N   0  0  0  0  0  0  0  0  0  0  0  0
    0.8838   -2.1500    0.0000 C   0  0  0  0  0  0  0  0  0  0  0  0
    1.3687   -2.8174    0.0000 N   0  0  0  0  0  0  0  0  0  0  0  0
    0.8838   -3.4849    0.0000 C   0  0  0  0  0  0  0  0  0  0  0  0
    1.1387   -1.3654    0.0000 C   0  0  0  0  0  0  0  0  0  0  0  0
    0.6538   -0.6979    0.0000 N   0  0  0  0  0  0  0  0  0  0  0  0
    1.1387   -0.0305    0.0000 N   0  0  0  0  0  0  0  0  0  0  0  0
    1.9233   -0.2854    0.0000 C   0  0  0  0  0  0  0  0  0  0  0  0
    2.6378    0.1271    0.0000 C   0  0  0  0  0  0  0  0  0  0  0  0
    3.3523   -0.2854    0.0000 C   0  0  0  0  0  0  0  0  0  0  0  0
    3.3523   -1.1104    0.0000 C   0  0  0  0  0  0  0  0  0  0  0  0
    2.6378   -1.5229    0.0000 C   0  0  0  0  0  0  0  0  0  0  0  0
    1.9233   -1.1104    0.0000 C   0  0  0  0  0  0  0  0  0  0  0  0
    4.0668    0.1271    0.0000 C   0  0  0  0  0  0  0  0  0  0  0  0
    4.0668    0.9521    0.0000 C   0  0  0  0  0  0  0  0  0  0  0  0
    4.7812    1.3646    0.0000 C   0  0  0  0  0  0  0  0  0  0  0  0
    5.4957    0.9521    0.0000 C   0  0  0  0  0  0  0  0  0  0  0  0
    6.2102    1.3646    0.0000 N   0  0  0  0  0  0  0  0  0  0  0  0
    5.4957    0.1271    0.0000 C   0  0  0  0  0  0  0  0  0  0  0  0
    4.7812   -0.2854    0.0000 C   0  0  0  0  0  0  0  0  0  0  0  0
  1  2  1  0
  2  3  1  0
  3  4  1  0
  4  5  1  0
  5  6  1  0
  6  7  1  0
  2  7  1  0
  5  8  1  0
  8  9  2  0
  9 10  1  0
 10 11  2  0
 11 12  1  0
 12 13  1  0
 13 14  1  0
 14 15  2  0
 15 16  1  0
  8 16  1  0
 12 16  2  0
 14 17  1  0
 17 18  2  0
 18 19  1  0
 19 20  1  0
 20 21  2  0
 21 22  1  0
 22 23  2  0
 23 24  1  0
 24 25  2  0
 17 25  1  0
 20 25  1  0
 22 26  1  0
 26 27  2  0
 27 28  1  0
 28 29  2  0
 29 30  1  0
 29 31  1  0
 31 32  2  0
 26 32  1  0
M  END
>  <pIC50>  (357) 
5.98

>  <chembl_id>  (357) 
CHEMBL480391

>  <canonical_smiles>  (357) 
CN1CCN(CC1)c2cccc3nc([nH]c23)c4n[nH]c5cc(ccc45)c6ccc(N)cc6

$$$$
CHEMBL480392
     RDKit          2D

 32 37  0  0  0  0  0  0  0  0999 V2000
    4.1938   -5.3116    0.0000 C   0  0  0  0  0  0  0  0  0  0  0  0
    3.4092   -5.0567    0.0000 N   0  0  0  0  0  0  0  0  0  0  0  0
    2.7961   -5.6087    0.0000 C   0  0  0  0  0  0  0  0  0  0  0  0
    2.0115   -5.3538    0.0000 C   0  0  0  0  0  0  0  0  0  0  0  0
    1.8399   -4.5468    0.0000 N   0  0  0  0  0  0  0  0  0  0  0  0
    2.4530   -3.9948    0.0000 C   0  0  0  0  0  0  0  0  0  0  0  0
    3.2376   -4.2497    0.0000 C   0  0  0  0  0  0  0  0  0  0  0  0
    1.0553   -4.2919    0.0000 C   0  0  0  0  0  0  0  0  0  0  0  0
    0.4422   -4.8439    0.0000 C   0  0  0  0  0  0  0  0  0  0  0  0
   -0.3424   -4.5889    0.0000 C   0  0  0  0  0  0  0  0  0  0  0  0
   -0.5139   -3.7820    0.0000 C   0  0  0  0  0  0  0  0  0  0  0  0
    0.0992   -3.2299    0.0000 C   0  0  0  0  0  0  0  0  0  0  0  0
    0.0992   -2.4049    0.0000 N   0  0  0  0  0  0  0  0  0  0  0  0
    0.8838   -2.1500    0.0000 C   0  0  0  0  0  0  0  0  0  0  0  0
    1.3687   -2.8174    0.0000 N   0  0  0  0  0  0  0  0  0  0  0  0
    0.8838   -3.4849    0.0000 C   0  0  0  0  0  0  0  0  0  0  0  0
    1.1387   -1.3654    0.0000 C   0  0  0  0  0  0  0  0  0  0  0  0
    0.6538   -0.6979    0.0000 N   0  0  0  0  0  0  0  0  0  0  0  0
    1.1387   -0.0305    0.0000 N   0  0  0  0  0  0  0  0  0  0  0  0
    1.9233   -0.2854    0.0000 C   0  0  0  0  0  0  0  0  0  0  0  0
    2.6378    0.1271    0.0000 C   0  0  0  0  0  0  0  0  0  0  0  0
    3.3523   -0.2854    0.0000 C   0  0  0  0  0  0  0  0  0  0  0  0
    3.3523   -1.1104    0.0000 C   0  0  0  0  0  0  0  0  0  0  0  0
    2.6378   -1.5229    0.0000 C   0  0  0  0  0  0  0  0  0  0  0  0
    1.9233   -1.1104    0.0000 C   0  0  0  0  0  0  0  0  0  0  0  0
    4.0668    0.1271    0.0000 C   0  0  0  0  0  0  0  0  0  0  0  0
    4.0668    0.9521    0.0000 C   0  0  0  0  0  0  0  0  0  0  0  0
    4.7812    1.3646    0.0000 C   0  0  0  0  0  0  0  0  0  0  0  0
    5.4957    0.9521    0.0000 C   0  0  0  0  0  0  0  0  0  0  0  0
    5.4957    0.1271    0.0000 C   0  0  0  0  0  0  0  0  0  0  0  0
    6.2102   -0.2854    0.0000 N   0  0  0  0  0  0  0  0  0  0  0  0
    4.7812   -0.2854    0.0000 C   0  0  0  0  0  0  0  0  0  0  0  0
  1  2  1  0
  2  3  1  0
  3  4  1  0
  4  5  1  0
  5  6  1  0
  6  7  1  0
  2  7  1  0
  5  8  1  0
  8  9  2  0
  9 10  1  0
 10 11  2  0
 11 12  1  0
 12 13  1  0
 13 14  1  0
 14 15  2  0
 15 16  1  0
  8 16  1  0
 12 16  2  0
 14 17  1  0
 17 18  2  0
 18 19  1  0
 19 20  1  0
 20 21  2  0
 21 22  1  0
 22 23  2  0
 23 24  1  0
 24 25  2  0
 17 25  1  0
 20 25  1  0
 22 26  1  0
 26 27  2  0
 27 28  1  0
 28 29  2  0
 29 30  1  0
 30 31  1  0
 30 32  2  0
 26 32  1  0
M  END
>  <pIC50>  (358) 
5.21

>  <chembl_id>  (358) 
CHEMBL480392

>  <canonical_smiles>  (358) 
CN1CCN(CC1)c2cccc3[nH]c(nc23)c4n[nH]c5cc(ccc45)c6cccc(N)c6

$$$$
CHEMBL480442
     RDKit          2D

 28 30  0  0  1  0  0  0  0  0999 V2000
    4.7812    4.4104    0.0000 C   0  0  0  0  0  0  0  0  0  0  0  0
    4.7812    3.5854    0.0000 C   0  0  0  0  0  0  0  0  0  0  0  0
    5.4957    3.1729    0.0000 C   0  0  0  0  0  0  0  0  0  0  0  0
    4.0668    3.1729    0.0000 C   0  0  0  0  0  0  0  0  0  0  0  0
    3.3523    3.5854    0.0000 C   0  0  0  0  0  0  0  0  0  0  0  0
    2.6378    3.1729    0.0000 O   0  0  0  0  0  0  0  0  0  0  0  0
    4.0668    2.3479    0.0000 N   0  0  0  0  0  0  0  0  0  0  0  0
    3.3523    1.9354    0.0000 C   0  0  0  0  0  0  0  0  0  0  0  0
    3.3523    1.1104    0.0000 N   0  0  0  0  0  0  0  0  0  0  0  0
    2.6378    0.6979    0.0000 C   0  0  0  0  0  0  0  0  0  0  0  0
    2.6378   -0.1271    0.0000 N   0  0  0  0  0  0  0  0  0  0  0  0
    3.3523   -0.5396    0.0000 C   0  0  0  0  0  0  0  0  0  0  0  0
    3.3523   -1.3646    0.0000 C   0  0  0  0  0  0  0  0  0  0  0  0
    4.0668   -1.7771    0.0000 C   0  0  0  0  0  0  0  0  0  0  0  0
    4.0668   -2.6021    0.0000 C   0  0  0  0  0  0  0  0  0  0  0  0
    3.3523   -3.0146    0.0000 C   0  0  0  0  0  0  0  0  0  0  0  0
    3.3523   -3.8396    0.0000 Cl  0  0  0  0  0  0  0  0  0  0  0  0
    2.6378   -2.6021    0.0000 C   0  0  0  0  0  0  0  0  0  0  0  0
    2.6378   -1.7771    0.0000 C   0  0  0  0  0  0  0  0  0  0  0  0
    1.9233    1.1104    0.0000 N   0  0  0  0  0  0  0  0  0  0  0  0
    1.1387    0.8555    0.0000 N   0  0  0  0  0  0  0  0  0  0  0  0
    0.6538    1.5229    0.0000 C   0  0  0  0  0  0  0  0  0  0  0  0
    1.1387    2.1904    0.0000 C   0  0  0  0  0  0  0  0  0  0  0  0
    0.8838    2.9750    0.0000 C   0  0  0  0  0  0  0  0  0  0  0  0
    1.4358    3.5881    0.0000 C   0  0  0  0  0  0  0  0  0  0  0  0
    0.0768    3.1465    0.0000 C   0  0  0  0  0  0  0  0  0  0  0  0
    1.9233    1.9354    0.0000 C   0  0  0  0  0  0  0  0  0  0  0  0
    2.6378    2.3479    0.0000 N   0  0  0  0  0  0  0  0  0  0  0  0
  1  2  1  0
  2  3  1  0
  4  2  1  0
  4  5  1  1
  5  6  1  0
  4  7  1  0
  7  8  1  0
  8  9  1  0
  9 10  2  0
 10 11  1  0
 11 12  1  0
 12 13  1  0
 13 14  2  0
 14 15  1  0
 15 16  2  0
 16 17  1  0
 16 18  1  0
 18 19  2  0
 13 19  1  0
 10 20  1  0
 20 21  1  0
 21 22  2  0
 22 23  1  0
 23 24  1  0
 24 25  1  0
 24 26  1  0
 23 27  2  0
 20 27  1  0
 27 28  1  0
  8 28  2  0
M  END
>  <pIC50>  (359) 
7.22

>  <chembl_id>  (359) 
CHEMBL480442

>  <canonical_smiles>  (359) 
CC(C)[C@H](CO)Nc1nc(NCc2ccc(Cl)cc2)n3ncc(C(C)C)c3n1

$$$$
CHEMBL481562
     RDKit          2D

 23 26  0  0  0  0  0  0  0  0999 V2000
    4.9279   -0.5396    0.0000 O   0  0  0  0  0  0  0  0  0  0  0  0
    4.2135   -0.1271    0.0000 C   0  0  0  0  0  0  0  0  0  0  0  0
    3.4990   -0.5396    0.0000 C   0  0  0  0  0  0  0  0  0  0  0  0
    2.7845   -0.1271    0.0000 C   0  0  0  0  0  0  0  0  0  0  0  0
    2.7845    0.6979    0.0000 C   0  0  0  0  0  0  0  0  0  0  0  0
    3.4990    1.1104    0.0000 C   0  0  0  0  0  0  0  0  0  0  0  0
    4.2135    0.6979    0.0000 C   0  0  0  0  0  0  0  0  0  0  0  0
    2.0701    1.1104    0.0000 C   0  0  0  0  0  0  0  0  0  0  0  0
    1.3556    0.6979    0.0000 C   0  0  0  0  0  0  0  0  0  0  0  0
    0.6411    1.1104    0.0000 C   0  0  0  0  0  0  0  0  0  0  0  0
   -0.1435    0.8555    0.0000 N   0  0  0  0  0  0  0  0  0  0  0  0
   -0.6284    1.5229    0.0000 N   0  0  0  0  0  0  0  0  0  0  0  0
   -0.1435    2.1904    0.0000 C   0  0  0  0  0  0  0  0  0  0  0  0
   -0.3984    2.9750    0.0000 C   0  0  0  0  0  0  0  0  0  0  0  0
    0.1536    3.5881    0.0000 O   0  0  0  0  0  0  0  0  0  0  0  0
   -1.2054    3.1465    0.0000 N   0  0  0  0  0  0  0  0  0  0  0  0
   -1.4604    3.9312    0.0000 C   0  0  0  0  0  0  0  0  0  0  0  0
   -2.0735    4.4832    0.0000 C   0  0  0  0  0  0  0  0  0  0  0  0
   -1.2888    4.7381    0.0000 C   0  0  0  0  0  0  0  0  0  0  0  0
    0.6411    1.9354    0.0000 C   0  0  0  0  0  0  0  0  0  0  0  0
    1.3556    2.3479    0.0000 C   0  0  0  0  0  0  0  0  0  0  0  0
    2.0701    1.9354    0.0000 C   0  0  0  0  0  0  0  0  0  0  0  0
    2.7845    2.3479    0.0000 Br  0  0  0  0  0  0  0  0  0  0  0  0
  1  2  1  0
  2  3  2  0
  3  4  1  0
  4  5  2  0
  5  6  1  0
  6  7  2  0
  2  7  1  0
  5  8  1  0
  8  9  2  0
  9 10  1  0
 10 11  2  0
 11 12  1  0
 12 13  1  0
 13 14  1  0
 14 15  2  0
 14 16  1  0
 16 17  1  0
 17 18  1  0
 18 19  1  0
 17 19  1  0
 13 20  2  0
 10 20  1  0
 20 21  1  0
 21 22  2  0
  8 22  1  0
 22 23  1  0
M  END
>  <pIC50>  (360) 
8.30

>  <chembl_id>  (360) 
CHEMBL481562

>  <canonical_smiles>  (360) 
Oc1ccc(cc1)c2cc3[nH]nc(C(=O)NC4CC4)c3cc2Br

$$$$
CHEMBL482193
     RDKit          2D

 26 28  0  0  1  0  0  0  0  0999 V2000
    4.7812    4.4104    0.0000 C   0  0  0  0  0  0  0  0  0  0  0  0
    4.7812    3.5854    0.0000 C   0  0  0  0  0  0  0  0  0  0  0  0
    4.0668    3.1729    0.0000 C   0  0  0  0  0  0  0  0  0  0  0  0
    3.3523    3.5854    0.0000 C   0  0  0  0  0  0  0  0  0  0  0  0
    2.6378    3.1729    0.0000 O   0  0  0  0  0  0  0  0  0  0  0  0
    4.0668    2.3479    0.0000 N   0  0  0  0  0  0  0  0  0  0  0  0
    3.3523    1.9354    0.0000 C   0  0  0  0  0  0  0  0  0  0  0  0
    3.3523    1.1104    0.0000 N   0  0  0  0  0  0  0  0  0  0  0  0
    2.6378    0.6979    0.0000 C   0  0  0  0  0  0  0  0  0  0  0  0
    2.6378   -0.1271    0.0000 N   0  0  0  0  0  0  0  0  0  0  0  0
    3.3523   -0.5396    0.0000 C   0  0  0  0  0  0  0  0  0  0  0  0
    3.3523   -1.3646    0.0000 C   0  0  0  0  0  0  0  0  0  0  0  0
    4.0668   -1.7771    0.0000 C   0  0  0  0  0  0  0  0  0  0  0  0
    4.0668   -2.6021    0.0000 C   0  0  0  0  0  0  0  0  0  0  0  0
    3.3523   -3.0146    0.0000 C   0  0  0  0  0  0  0  0  0  0  0  0
    2.6378   -2.6021    0.0000 C   0  0  0  0  0  0  0  0  0  0  0  0
    2.6378   -1.7771    0.0000 C   0  0  0  0  0  0  0  0  0  0  0  0
    1.9233    1.1104    0.0000 N   0  0  0  0  0  0  0  0  0  0  0  0
    1.1387    0.8555    0.0000 N   0  0  0  0  0  0  0  0  0  0  0  0
    0.6538    1.5229    0.0000 C   0  0  0  0  0  0  0  0  0  0  0  0
    1.1387    2.1904    0.0000 C   0  0  0  0  0  0  0  0  0  0  0  0
    0.8838    2.9750    0.0000 C   0  0  0  0  0  0  0  0  0  0  0  0
    1.4358    3.5881    0.0000 C   0  0  0  0  0  0  0  0  0  0  0  0
    0.0768    3.1465    0.0000 C   0  0  0  0  0  0  0  0  0  0  0  0
    1.9233    1.9354    0.0000 C   0  0  0  0  0  0  0  0  0  0  0  0
    2.6378    2.3479    0.0000 N   0  0  0  0  0  0  0  0  0  0  0  0
  1  2  1  0
  3  2  1  1
  3  4  1  0
  4  5  1  0
  3  6  1  0
  6  7  1  0
  7  8  1  0
  8  9  2  0
  9 10  1  0
 10 11  1  0
 11 12  1  0
 12 13  2  0
 13 14  1  0
 14 15  2  0
 15 16  1  0
 16 17  2  0
 12 17  1  0
  9 18  1  0
 18 19  1  0
 19 20  2  0
 20 21  1  0
 21 22  1  0
 22 23  1  0
 22 24  1  0
 21 25  2  0
 18 25  1  0
 25 26  1  0
  7 26  2  0
M  END
>  <pIC50>  (361) 
7.40

>  <chembl_id>  (361) 
CHEMBL482193

>  <canonical_smiles>  (361) 
CC[C@H](CO)Nc1nc(NCc2ccccc2)n3ncc(C(C)C)c3n1

$$$$
CHEMBL482211
     RDKit          2D

 26 28  0  0  1  0  0  0  0  0999 V2000
    4.7812    4.4104    0.0000 C   0  0  0  0  0  0  0  0  0  0  0  0
    4.7812    3.5854    0.0000 C   0  0  0  0  0  0  0  0  0  0  0  0
    4.0668    3.1729    0.0000 C   0  0  0  0  0  0  0  0  0  0  0  0
    3.3523    3.5854    0.0000 C   0  0  0  0  0  0  0  0  0  0  0  0
    2.6378    3.1729    0.0000 O   0  0  0  0  0  0  0  0  0  0  0  0
    4.0668    2.3479    0.0000 N   0  0  0  0  0  0  0  0  0  0  0  0
    3.3523    1.9354    0.0000 C   0  0  0  0  0  0  0  0  0  0  0  0
    3.3523    1.1104    0.0000 N   0  0  0  0  0  0  0  0  0  0  0  0
    2.6378    0.6979    0.0000 C   0  0  0  0  0  0  0  0  0  0  0  0
    2.6378   -0.1271    0.0000 N   0  0  0  0  0  0  0  0  0  0  0  0
    3.3523   -0.5396    0.0000 C   0  0  0  0  0  0  0  0  0  0  0  0
    3.3523   -1.3646    0.0000 C   0  0  0  0  0  0  0  0  0  0  0  0
    4.0668   -1.7771    0.0000 C   0  0  0  0  0  0  0  0  0  0  0  0
    4.0668   -2.6021    0.0000 C   0  0  0  0  0  0  0  0  0  0  0  0
    3.3523   -3.0146    0.0000 C   0  0  0  0  0  0  0  0  0  0  0  0
    2.6378   -2.6021    0.0000 C   0  0  0  0  0  0  0  0  0  0  0  0
    2.6378   -1.7771    0.0000 C   0  0  0  0  0  0  0  0  0  0  0  0
    1.9233    1.1104    0.0000 C   0  0  0  0  0  0  0  0  0  0  0  0
    1.1387    0.8555    0.0000 N   0  0  0  0  0  0  0  0  0  0  0  0
    0.6538    1.5229    0.0000 C   0  0  0  0  0  0  0  0  0  0  0  0
    1.1387    2.1904    0.0000 C   0  0  0  0  0  0  0  0  0  0  0  0
    0.8838    2.9750    0.0000 C   0  0  0  0  0  0  0  0  0  0  0  0
    1.4358    3.5881    0.0000 C   0  0  0  0  0  0  0  0  0  0  0  0
    0.0768    3.1465    0.0000 C   0  0  0  0  0  0  0  0  0  0  0  0
    1.9233    1.9354    0.0000 N   0  0  0  0  0  0  0  0  0  0  0  0
    2.6378    2.3479    0.0000 N   0  0  0  0  0  0  0  0  0  0  0  0
  1  2  1  0
  3  2  1  1
  3  4  1  0
  4  5  1  0
  3  6  1  0
  6  7  1  0
  7  8  1  0
  8  9  2  0
  9 10  1  0
 10 11  1  0
 11 12  1  0
 12 13  2  0
 13 14  1  0
 14 15  2  0
 15 16  1  0
 16 17  2  0
 12 17  1  0
  9 18  1  0
 18 19  2  0
 19 20  1  0
 20 21  2  0
 21 22  1  0
 22 23  1  0
 22 24  1  0
 21 25  1  0
 18 25  1  0
 25 26  1  0
  7 26  2  0
M  END
>  <pIC50>  (362) 
6.66

>  <chembl_id>  (362) 
CHEMBL482211

>  <canonical_smiles>  (362) 
CC[C@H](CO)Nc1nc(NCc2ccccc2)c3ncc(C(C)C)n3n1

$$$$
CHEMBL482350
     RDKit          2D

 34 39  0  0  0  0  0  0  0  0999 V2000
   -2.8385    0.0117    0.0000 C   0  0  0  0  0  0  0  0  0  0  0  0
   -3.4516    0.5637    0.0000 O   0  0  0  0  0  0  0  0  0  0  0  0
   -3.2800    1.3707    0.0000 C   0  0  0  0  0  0  0  0  0  0  0  0
   -3.8931    1.9227    0.0000 C   0  0  0  0  0  0  0  0  0  0  0  0
   -3.7216    2.7297    0.0000 C   0  0  0  0  0  0  0  0  0  0  0  0
   -4.3347    3.2817    0.0000 F   0  0  0  0  0  0  0  0  0  0  0  0
   -2.9370    2.9846    0.0000 C   0  0  0  0  0  0  0  0  0  0  0  0
   -2.3239    2.4326    0.0000 C   0  0  0  0  0  0  0  0  0  0  0  0
   -2.4954    1.6256    0.0000 C   0  0  0  0  0  0  0  0  0  0  0  0
   -1.8823    1.0736    0.0000 C   0  0  0  0  0  0  0  0  0  0  0  0
   -1.0977    1.3285    0.0000 C   0  0  0  0  0  0  0  0  0  0  0  0
   -0.4846    0.7765    0.0000 C   0  0  0  0  0  0  0  0  0  0  0  0
   -0.6561   -0.0305    0.0000 C   0  0  0  0  0  0  0  0  0  0  0  0
   -0.1712   -0.6979    0.0000 C   0  0  0  0  0  0  0  0  0  0  0  0
   -0.6561   -1.3654    0.0000 N   0  0  0  0  0  0  0  0  0  0  0  0
   -1.4407   -1.1104    0.0000 N   0  0  0  0  0  0  0  0  0  0  0  0
   -1.4407   -0.2854    0.0000 C   0  0  0  0  0  0  0  0  0  0  0  0
   -2.0538    0.2666    0.0000 C   0  0  0  0  0  0  0  0  0  0  0  0
    0.6538   -0.6979    0.0000 C   0  0  0  0  0  0  0  0  0  0  0  0
    1.1387   -0.0305    0.0000 N   0  0  0  0  0  0  0  0  0  0  0  0
    1.9233   -0.2854    0.0000 C   0  0  0  0  0  0  0  0  0  0  0  0
    2.6378    0.1271    0.0000 C   0  0  0  0  0  0  0  0  0  0  0  0
    3.3523   -0.2854    0.0000 C   0  0  0  0  0  0  0  0  0  0  0  0
    3.3523   -1.1104    0.0000 C   0  0  0  0  0  0  0  0  0  0  0  0
    2.6378   -1.5229    0.0000 C   0  0  0  0  0  0  0  0  0  0  0  0
    1.9233   -1.1104    0.0000 C   0  0  0  0  0  0  0  0  0  0  0  0
    1.1387   -1.3654    0.0000 N   0  0  0  0  0  0  0  0  0  0  0  0
    2.6378    0.9521    0.0000 N   0  0  0  0  0  0  0  0  0  0  0  0
    1.9233    1.3646    0.0000 C   0  0  0  0  0  0  0  0  0  0  0  0
    1.9233    2.1896    0.0000 C   0  0  0  0  0  0  0  0  0  0  0  0
    2.6378    2.6021    0.0000 N   0  0  0  0  0  0  0  0  0  0  0  0
    2.6378    3.4271    0.0000 C   0  0  0  0  0  0  0  0  0  0  0  0
    3.3523    2.1896    0.0000 C   0  0  0  0  0  0  0  0  0  0  0  0
    3.3523    1.3646    0.0000 C   0  0  0  0  0  0  0  0  0  0  0  0
  1  2  1  0
  2  3  1  0
  3  4  2  0
  4  5  1  0
  5  6  1  0
  5  7  2  0
  7  8  1  0
  8  9  2  0
  3  9  1  0
  9 10  1  0
 10 11  2  0
 11 12  1  0
 12 13  2  0
 13 14  1  0
 14 15  2  0
 15 16  1  0
 16 17  1  0
 13 17  1  0
 17 18  2  0
 10 18  1  0
 14 19  1  0
 19 20  2  0
 20 21  1  0
 21 22  2  0
 22 23  1  0
 23 24  2  0
 24 25  1  0
 25 26  2  0
 21 26  1  0
 26 27  1  0
 19 27  1  0
 22 28  1  0
 28 29  1  0
 29 30  1  0
 30 31  1  0
 31 32  1  0
 31 33  1  0
 33 34  1  0
 28 34  1  0
M  END
>  <pIC50>  (363) 
5.00

>  <chembl_id>  (363) 
CHEMBL482350

>  <canonical_smiles>  (363) 
COc1cc(F)ccc1c2ccc3c(n[nH]c3c2)c4nc5c(cccc5[nH]4)N6CCN(C)CC6

$$$$
CHEMBL482368
     RDKit          2D

 34 39  0  0  0  0  0  0  0  0999 V2000
   -3.3785    4.3436    0.0000 C   0  0  0  0  0  0  0  0  0  0  0  0
   -2.7654    3.7916    0.0000 O   0  0  0  0  0  0  0  0  0  0  0  0
   -2.9370    2.9846    0.0000 C   0  0  0  0  0  0  0  0  0  0  0  0
   -2.3239    2.4326    0.0000 C   0  0  0  0  0  0  0  0  0  0  0  0
   -2.4954    1.6256    0.0000 C   0  0  0  0  0  0  0  0  0  0  0  0
   -3.2800    1.3707    0.0000 C   0  0  0  0  0  0  0  0  0  0  0  0
   -3.8931    1.9227    0.0000 C   0  0  0  0  0  0  0  0  0  0  0  0
   -3.7216    2.7297    0.0000 C   0  0  0  0  0  0  0  0  0  0  0  0
   -4.3347    3.2817    0.0000 N   0  0  0  0  0  0  0  0  0  0  0  0
   -1.8823    1.0736    0.0000 C   0  0  0  0  0  0  0  0  0  0  0  0
   -1.0977    1.3285    0.0000 C   0  0  0  0  0  0  0  0  0  0  0  0
   -0.4846    0.7765    0.0000 C   0  0  0  0  0  0  0  0  0  0  0  0
   -0.6561   -0.0305    0.0000 C   0  0  0  0  0  0  0  0  0  0  0  0
   -0.1712   -0.6979    0.0000 C   0  0  0  0  0  0  0  0  0  0  0  0
   -0.6561   -1.3654    0.0000 N   0  0  0  0  0  0  0  0  0  0  0  0
   -1.4407   -1.1104    0.0000 N   0  0  0  0  0  0  0  0  0  0  0  0
   -1.4407   -0.2854    0.0000 C   0  0  0  0  0  0  0  0  0  0  0  0
   -2.0538    0.2666    0.0000 C   0  0  0  0  0  0  0  0  0  0  0  0
    0.6538   -0.6979    0.0000 C   0  0  0  0  0  0  0  0  0  0  0  0
    1.1387   -0.0305    0.0000 N   0  0  0  0  0  0  0  0  0  0  0  0
    1.9233   -0.2854    0.0000 C   0  0  0  0  0  0  0  0  0  0  0  0
    2.6378    0.1271    0.0000 C   0  0  0  0  0  0  0  0  0  0  0  0
    3.3523   -0.2854    0.0000 C   0  0  0  0  0  0  0  0  0  0  0  0
    3.3523   -1.1104    0.0000 C   0  0  0  0  0  0  0  0  0  0  0  0
    2.6378   -1.5229    0.0000 C   0  0  0  0  0  0  0  0  0  0  0  0
    1.9233   -1.1104    0.0000 C   0  0  0  0  0  0  0  0  0  0  0  0
    1.1387   -1.3654    0.0000 N   0  0  0  0  0  0  0  0  0  0  0  0
    2.6378    0.9521    0.0000 N   0  0  0  0  0  0  0  0  0  0  0  0
    1.9233    1.3646    0.0000 C   0  0  0  0  0  0  0  0  0  0  0  0
    1.9233    2.1896    0.0000 C   0  0  0  0  0  0  0  0  0  0  0  0
    2.6378    2.6021    0.0000 N   0  0  0  0  0  0  0  0  0  0  0  0
    2.6378    3.4271    0.0000 C   0  0  0  0  0  0  0  0  0  0  0  0
    3.3523    2.1896    0.0000 C   0  0  0  0  0  0  0  0  0  0  0  0
    3.3523    1.3646    0.0000 C   0  0  0  0  0  0  0  0  0  0  0  0
  1  2  1  0
  2  3  1  0
  3  4  2  0
  4  5  1  0
  5  6  2  0
  6  7  1  0
  7  8  2  0
  3  8  1  0
  8  9  1  0
  5 10  1  0
 10 11  2  0
 11 12  1  0
 12 13  2  0
 13 14  1  0
 14 15  2  0
 15 16  1  0
 16 17  1  0
 13 17  1  0
 17 18  2  0
 10 18  1  0
 14 19  1  0
 19 20  2  0
 20 21  1  0
 21 22  2  0
 22 23  1  0
 23 24  2  0
 24 25  1  0
 25 26  2  0
 21 26  1  0
 26 27  1  0
 19 27  1  0
 22 28  1  0
 28 29  1  0
 29 30  1  0
 30 31  1  0
 31 32  1  0
 31 33  1  0
 33 34  1  0
 28 34  1  0
M  END
>  <pIC50>  (364) 
6.61

>  <chembl_id>  (364) 
CHEMBL482368

>  <canonical_smiles>  (364) 
COc1cc(ccc1N)c2ccc3c(n[nH]c3c2)c4nc5c(cccc5[nH]4)N6CCN(C)CC6

$$$$
CHEMBL487254
     RDKit          2D

 38 44  0  0  0  0  0  0  0  0999 V2000
    2.0143   -5.6085    0.0000 N   0  0  0  0  0  0  0  0  0  0  0  0
    1.2534   -5.2896    0.0000 C   0  0  0  0  0  0  0  0  0  0  0  0
    0.5968   -5.7891    0.0000 N   0  0  0  0  0  0  0  0  0  0  0  0
    0.7011   -6.6075    0.0000 C   0  0  0  0  0  0  0  0  0  0  0  0
    1.4619   -6.9264    0.0000 C   0  0  0  0  0  0  0  0  0  0  0  0
    1.5662   -7.7448    0.0000 C   0  0  0  0  0  0  0  0  0  0  0  0
    0.9096   -8.2442    0.0000 C   0  0  0  0  0  0  0  0  0  0  0  0
    0.1487   -7.9253    0.0000 C   0  0  0  0  0  0  0  0  0  0  0  0
    0.0444   -7.1069    0.0000 C   0  0  0  0  0  0  0  0  0  0  0  0
    1.1492   -4.4712    0.0000 S   0  0  0  0  0  0  0  0  0  0  0  0
    1.8058   -3.9718    0.0000 C   0  0  0  0  0  0  0  0  0  0  0  0
    1.7016   -3.1534    0.0000 C   0  0  0  0  0  0  0  0  0  0  0  0
    2.3582   -2.6539    0.0000 C   0  0  0  0  0  0  0  0  0  0  0  0
    2.2539   -1.8355    0.0000 N   0  0  0  0  0  0  0  0  0  0  0  0
    2.8548   -1.2701    0.0000 C   0  0  0  0  0  0  0  0  0  0  0  0
    3.6653   -1.4239    0.0000 O   0  0  0  0  0  0  0  0  0  0  0  0
    2.5027   -0.5240    0.0000 C   0  0  0  0  0  0  0  0  0  0  0  0
    1.6843   -0.6283    0.0000 C   0  0  0  0  0  0  0  0  0  0  0  0
    1.5306   -1.4388    0.0000 C   0  0  0  0  0  0  0  0  0  0  0  0
    0.7845   -1.7908    0.0000 O   0  0  0  0  0  0  0  0  0  0  0  0
    1.0926   -0.0534    0.0000 N   0  0  0  0  0  0  0  0  0  0  0  0
    0.2868   -0.2306    0.0000 C   0  0  0  0  0  0  0  0  0  0  0  0
   -0.1307    0.4810    0.0000 C   0  0  0  0  0  0  0  0  0  0  0  0
    0.4170    1.0979    0.0000 C   0  0  0  0  0  0  0  0  0  0  0  0
    0.3250    1.9178    0.0000 C   0  0  0  0  0  0  0  0  0  0  0  0
    0.9891    2.4074    0.0000 C   0  0  0  0  0  0  0  0  0  0  0  0
    1.7451    2.0771    0.0000 C   0  0  0  0  0  0  0  0  0  0  0  0
    1.8652    1.2167    0.0000 C   0  0  0  0  0  0  0  0  0  0  0  0
    2.6477    0.9555    0.0000 C   0  0  0  0  0  0  0  0  0  0  0  0
    3.2968    1.4647    0.0000 C   0  0  0  0  0  0  0  0  0  0  0  0
    3.9817    1.0048    0.0000 C   0  0  0  0  0  0  0  0  0  0  0  0
    4.7818    1.2060    0.0000 C   0  0  0  0  0  0  0  0  0  0  0  0
    5.3561    0.6137    0.0000 C   0  0  0  0  0  0  0  0  0  0  0  0
    5.1303   -0.1798    0.0000 C   0  0  0  0  0  0  0  0  0  0  0  0
    4.3302   -0.3810    0.0000 C   0  0  0  0  0  0  0  0  0  0  0  0
    3.7559    0.2113    0.0000 C   0  0  0  0  0  0  0  0  0  0  0  0
    2.9315    0.1808    0.0000 N   0  0  0  0  0  0  0  0  0  0  0  0
    1.1730    0.7676    0.0000 C   0  0  0  0  0  0  0  0  0  0  0  0
  1  2  2  0
  2  3  1  0
  3  4  1  0
  4  5  2  0
  5  6  1  0
  6  7  2  0
  7  8  1  0
  8  9  2  0
  4  9  1  0
  2 10  1  0
 10 11  1  0
 11 12  1  0
 12 13  1  0
 13 14  1  0
 14 15  1  0
 15 16  2  0
 15 17  1  0
 17 18  2  0
 18 19  1  0
 14 19  1  0
 19 20  2  0
 18 21  1  0
 21 22  1  0
 22 23  2  0
 23 24  1  0
 24 25  2  0
 25 26  1  0
 26 27  2  0
 27 28  1  0
 28 29  1  0
 29 30  1  0
 30 31  1  0
 31 32  2  0
 32 33  1  0
 33 34  2  0
 34 35  1  0
 35 36  2  0
 31 36  1  0
 36 37  1  0
 17 37  1  0
 29 37  1  0
 28 38  2  0
 21 38  1  0
 24 38  1  0
M  END
>  <pIC50>  (365) 
5.29

>  <chembl_id>  (365) 
CHEMBL487254

>  <canonical_smiles>  (365) 
N=C(Nc1ccccc1)SCCCN2C(=O)C3=C(C2=O)n4ccc5cccc(C6Cc7ccccc7N36)c45

$$$$
CHEMBL488270
     RDKit          2D

 34 40  0  0  0  0  0  0  0  0999 V2000
    3.6653    2.2489    0.0000 O   0  0  0  0  0  0  0  0  0  0  0  0
    2.8548    2.0951    0.0000 C   0  0  0  0  0  0  0  0  0  0  0  0
    2.2539    2.6605    0.0000 N   0  0  0  0  0  0  0  0  0  0  0  0
    2.3582    3.4789    0.0000 C   0  0  0  0  0  0  0  0  0  0  0  0
    1.7016    3.9784    0.0000 C   0  0  0  0  0  0  0  0  0  0  0  0
    1.8058    4.7968    0.0000 C   0  0  0  0  0  0  0  0  0  0  0  0
    1.1492    5.2962    0.0000 S   0  0  0  0  0  0  0  0  0  0  0  0
    1.2534    6.1146    0.0000 C   0  0  0  0  0  0  0  0  0  0  0  0
    0.6526    6.6800    0.0000 N   0  0  0  0  0  0  0  0  0  0  0  0
    1.0047    7.4261    0.0000 C   0  0  0  0  0  0  0  0  0  0  0  0
    1.8230    7.3219    0.0000 C   0  0  0  0  0  0  0  0  0  0  0  0
    1.9768    6.5113    0.0000 N   0  0  0  0  0  0  0  0  0  0  0  0
    1.5306    2.2638    0.0000 C   0  0  0  0  0  0  0  0  0  0  0  0
    0.7845    2.6158    0.0000 O   0  0  0  0  0  0  0  0  0  0  0  0
    1.6843    1.4533    0.0000 C   0  0  0  0  0  0  0  0  0  0  0  0
    2.5027    1.3490    0.0000 C   0  0  0  0  0  0  0  0  0  0  0  0
    2.9315    0.6442    0.0000 N   0  0  0  0  0  0  0  0  0  0  0  0
    2.6477   -0.1305    0.0000 C   0  0  0  0  0  0  0  0  0  0  0  0
    3.2968   -0.6397    0.0000 C   0  0  0  0  0  0  0  0  0  0  0  0
    3.9817   -0.1798    0.0000 C   0  0  0  0  0  0  0  0  0  0  0  0
    4.7818   -0.3810    0.0000 C   0  0  0  0  0  0  0  0  0  0  0  0
    5.3561    0.2113    0.0000 C   0  0  0  0  0  0  0  0  0  0  0  0
    5.1303    1.0048    0.0000 C   0  0  0  0  0  0  0  0  0  0  0  0
    4.3302    1.2060    0.0000 C   0  0  0  0  0  0  0  0  0  0  0  0
    3.7559    0.6137    0.0000 C   0  0  0  0  0  0  0  0  0  0  0  0
    1.8652   -0.3917    0.0000 C   0  0  0  0  0  0  0  0  0  0  0  0
    1.7451   -1.2521    0.0000 C   0  0  0  0  0  0  0  0  0  0  0  0
    0.9891   -1.5824    0.0000 C   0  0  0  0  0  0  0  0  0  0  0  0
    0.3250   -1.0928    0.0000 C   0  0  0  0  0  0  0  0  0  0  0  0
    0.4170   -0.2729    0.0000 C   0  0  0  0  0  0  0  0  0  0  0  0
   -0.1307    0.3440    0.0000 C   0  0  0  0  0  0  0  0  0  0  0  0
    0.2868    1.0556    0.0000 C   0  0  0  0  0  0  0  0  0  0  0  0
    1.0926    0.8784    0.0000 N   0  0  0  0  0  0  0  0  0  0  0  0
    1.1730    0.0574    0.0000 C   0  0  0  0  0  0  0  0  0  0  0  0
  1  2  2  0
  2  3  1  0
  3  4  1  0
  4  5  1  0
  5  6  1  0
  6  7  1  0
  7  8  1  0
  8  9  2  0
  9 10  1  0
 10 11  1  0
 11 12  1  0
  8 12  1  0
  3 13  1  0
 13 14  2  0
 13 15  1  0
 15 16  2  0
  2 16  1  0
 16 17  1  0
 17 18  1  0
 18 19  1  0
 19 20  1  0
 20 21  2  0
 21 22  1  0
 22 23  2  0
 23 24  1  0
 24 25  2  0
 17 25  1  0
 20 25  1  0
 18 26  1  0
 26 27  2  0
 27 28  1  0
 28 29  2  0
 29 30  1  0
 30 31  1  0
 31 32  2  0
 32 33  1  0
 15 33  1  0
 33 34  1  0
 26 34  1  0
 30 34  2  0
M  END
>  <pIC50>  (366) 
5.11

>  <chembl_id>  (366) 
CHEMBL488270

>  <canonical_smiles>  (366) 
O=C1N(CCCSC2=NCCN2)C(=O)C3=C1N4C(Cc5ccccc45)c6cccc7ccn3c67

$$$$
CHEMBL488271
     RDKit          2D

 33 38  0  0  0  0  0  0  0  0999 V2000
    0.7011    7.4325    0.0000 C   0  0  0  0  0  0  0  0  0  0  0  0
    0.5968    6.6141    0.0000 N   0  0  0  0  0  0  0  0  0  0  0  0
    1.2534    6.1146    0.0000 C   0  0  0  0  0  0  0  0  0  0  0  0
    2.0143    6.4335    0.0000 N   0  0  0  0  0  0  0  0  0  0  0  0
    1.1492    5.2962    0.0000 S   0  0  0  0  0  0  0  0  0  0  0  0
    1.8058    4.7968    0.0000 C   0  0  0  0  0  0  0  0  0  0  0  0
    1.7016    3.9784    0.0000 C   0  0  0  0  0  0  0  0  0  0  0  0
    2.3582    3.4789    0.0000 C   0  0  0  0  0  0  0  0  0  0  0  0
    2.2539    2.6605    0.0000 N   0  0  0  0  0  0  0  0  0  0  0  0
    1.5306    2.2638    0.0000 C   0  0  0  0  0  0  0  0  0  0  0  0
    0.7845    2.6158    0.0000 O   0  0  0  0  0  0  0  0  0  0  0  0
    1.6843    1.4533    0.0000 C   0  0  0  0  0  0  0  0  0  0  0  0
    2.5027    1.3490    0.0000 C   0  0  0  0  0  0  0  0  0  0  0  0
    2.8548    2.0951    0.0000 C   0  0  0  0  0  0  0  0  0  0  0  0
    3.6653    2.2489    0.0000 O   0  0  0  0  0  0  0  0  0  0  0  0
    2.9315    0.6442    0.0000 N   0  0  0  0  0  0  0  0  0  0  0  0
    2.6477   -0.1305    0.0000 C   0  0  0  0  0  0  0  0  0  0  0  0
    3.2968   -0.6397    0.0000 C   0  0  0  0  0  0  0  0  0  0  0  0
    3.9817   -0.1798    0.0000 C   0  0  0  0  0  0  0  0  0  0  0  0
    4.7818   -0.3810    0.0000 C   0  0  0  0  0  0  0  0  0  0  0  0
    5.3561    0.2113    0.0000 C   0  0  0  0  0  0  0  0  0  0  0  0
    5.1303    1.0048    0.0000 C   0  0  0  0  0  0  0  0  0  0  0  0
    4.3302    1.2060    0.0000 C   0  0  0  0  0  0  0  0  0  0  0  0
    3.7559    0.6137    0.0000 C   0  0  0  0  0  0  0  0  0  0  0  0
    1.8652   -0.3917    0.0000 C   0  0  0  0  0  0  0  0  0  0  0  0
    1.7451   -1.2521    0.0000 C   0  0  0  0  0  0  0  0  0  0  0  0
    0.9891   -1.5824    0.0000 C   0  0  0  0  0  0  0  0  0  0  0  0
    0.3250   -1.0928    0.0000 C   0  0  0  0  0  0  0  0  0  0  0  0
    0.4170   -0.2729    0.0000 C   0  0  0  0  0  0  0  0  0  0  0  0
   -0.1307    0.3440    0.0000 C   0  0  0  0  0  0  0  0  0  0  0  0
    0.2868    1.0556    0.0000 C   0  0  0  0  0  0  0  0  0  0  0  0
    1.0926    0.8784    0.0000 N   0  0  0  0  0  0  0  0  0  0  0  0
    1.1730    0.0574    0.0000 C   0  0  0  0  0  0  0  0  0  0  0  0
  1  2  1  0
  2  3  1  0
  3  4  2  0
  3  5  1  0
  5  6  1  0
  6  7  1  0
  7  8  1  0
  8  9  1  0
  9 10  1  0
 10 11  2  0
 10 12  1  0
 12 13  2  0
 13 14  1  0
  9 14  1  0
 14 15  2  0
 13 16  1  0
 16 17  1  0
 17 18  2  0
 18 19  1  0
 19 20  2  0
 20 21  1  0
 21 22  2  0
 22 23  1  0
 23 24  2  0
 16 24  1  0
 19 24  1  0
 17 25  1  0
 25 26  1  0
 26 27  2  0
 27 28  1  0
 28 29  2  0
 29 30  1  0
 30 31  2  0
 31 32  1  0
 12 32  1  0
 32 33  1  0
 25 33  2  0
 29 33  1  0
M  END
>  <pIC50>  (367) 
5.20

>  <chembl_id>  (367) 
CHEMBL488271

>  <canonical_smiles>  (367) 
CNC(=N)SCCCN1C(=O)C2=C(C1=O)n3c(cc4ccccc34)c5cccc6ccn2c56

$$$$
CHEMBL488646
     RDKit          2D

 33 36  0  0  0  0  0  0  0  0999 V2000
   -1.7307    0.6908    0.0000 C   0  0  0  0  0  0  0  0  0  0  0  0
   -1.0632    0.2059    0.0000 O   0  0  0  0  0  0  0  0  0  0  0  0
   -1.1495   -0.6146    0.0000 C   0  0  0  0  0  0  0  0  0  0  0  0
   -0.4820   -1.0995    0.0000 C   0  0  0  0  0  0  0  0  0  0  0  0
   -0.5683   -1.9200    0.0000 C   0  0  0  0  0  0  0  0  0  0  0  0
   -1.3220   -2.2556    0.0000 C   0  0  0  0  0  0  0  0  0  0  0  0
   -1.9894   -1.7707    0.0000 C   0  0  0  0  0  0  0  0  0  0  0  0
   -2.7431   -2.1062    0.0000 O   0  0  0  0  0  0  0  0  0  0  0  0
   -3.4105   -1.6213    0.0000 C   0  0  0  0  0  0  0  0  0  0  0  0
   -1.9032   -0.9502    0.0000 C   0  0  0  0  0  0  0  0  0  0  0  0
   -2.5706   -0.4653    0.0000 O   0  0  0  0  0  0  0  0  0  0  0  0
   -2.4844    0.3552    0.0000 C   0  0  0  0  0  0  0  0  0  0  0  0
    0.0992   -2.4049    0.0000 C   0  0  0  0  0  0  0  0  0  0  0  0
    0.8838   -2.1500    0.0000 C   0  0  0  0  0  0  0  0  0  0  0  0
    1.3687   -2.8174    0.0000 C   0  0  0  0  0  0  0  0  0  0  0  0
    0.8838   -3.4849    0.0000 N   0  0  0  0  0  0  0  0  0  0  0  0
    0.0992   -3.2299    0.0000 C   0  0  0  0  0  0  0  0  0  0  0  0
   -0.5683   -3.7149    0.0000 O   0  0  0  0  0  0  0  0  0  0  0  0
    1.1387   -1.3654    0.0000 C   0  0  0  0  0  0  0  0  0  0  0  0
    0.6538   -0.6979    0.0000 C   0  0  0  0  0  0  0  0  0  0  0  0
    1.1387   -0.0305    0.0000 N   0  0  0  0  0  0  0  0  0  0  0  0
    0.8838    0.7541    0.0000 C   0  0  0  0  0  0  0  0  0  0  0  0
    1.4358    1.3672    0.0000 O   0  0  0  0  0  0  0  0  0  0  0  0
    1.1809    2.1518    0.0000 C   0  0  0  0  0  0  0  0  0  0  0  0
    0.9259    2.9365    0.0000 C   0  0  0  0  0  0  0  0  0  0  0  0
    1.9655    2.4068    0.0000 C   0  0  0  0  0  0  0  0  0  0  0  0
    0.3963    1.8969    0.0000 C   0  0  0  0  0  0  0  0  0  0  0  0
    1.9233   -0.2854    0.0000 C   0  0  0  0  0  0  0  0  0  0  0  0
    2.6378    0.1271    0.0000 C   0  0  0  0  0  0  0  0  0  0  0  0
    3.3523   -0.2854    0.0000 C   0  0  0  0  0  0  0  0  0  0  0  0
    3.3523   -1.1104    0.0000 C   0  0  0  0  0  0  0  0  0  0  0  0
    2.6378   -1.5229    0.0000 C   0  0  0  0  0  0  0  0  0  0  0  0
    1.9233   -1.1104    0.0000 C   0  0  0  0  0  0  0  0  0  0  0  0
  1  2  1  0
  2  3  1  0
  3  4  2  0
  4  5  1  0
  5  6  2  0
  6  7  1  0
  7  8  1  0
  8  9  1  0
  7 10  2  0
  3 10  1  0
 10 11  1  0
 11 12  1  0
  5 13  1  0
 13 14  2  0
 14 15  1  0
 15 16  1  0
 16 17  1  0
 13 17  1  0
 17 18  2  0
 14 19  1  0
 19 20  2  0
 20 21  1  0
 21 22  1  0
 22 23  1  0
 23 24  1  0
 24 25  1  0
 24 26  1  0
 24 27  1  0
 21 28  1  0
 28 29  2  0
 29 30  1  0
 30 31  2  0
 31 32  1  0
 32 33  2  0
 19 33  1  0
 28 33  1  0
M  END
>  <pIC50>  (368) 
4.64

>  <chembl_id>  (368) 
CHEMBL488646

>  <canonical_smiles>  (368) 
COc1cc(cc(OC)c1OC)C2=C(CNC2=O)c3cn(COC(C)(C)C)c4ccccc34

$$$$
CHEMBL488811
     RDKit          2D

 35 39  0  0  0  0  0  0  0  0999 V2000
   -1.7307    0.6908    0.0000 C   0  0  0  0  0  0  0  0  0  0  0  0
   -1.0632    0.2059    0.0000 O   0  0  0  0  0  0  0  0  0  0  0  0
   -1.1495   -0.6146    0.0000 C   0  0  0  0  0  0  0  0  0  0  0  0
   -0.4820   -1.0995    0.0000 C   0  0  0  0  0  0  0  0  0  0  0  0
   -0.5683   -1.9200    0.0000 C   0  0  0  0  0  0  0  0  0  0  0  0
   -1.3220   -2.2556    0.0000 C   0  0  0  0  0  0  0  0  0  0  0  0
   -1.9894   -1.7707    0.0000 C   0  0  0  0  0  0  0  0  0  0  0  0
   -2.7431   -2.1062    0.0000 O   0  0  0  0  0  0  0  0  0  0  0  0
   -3.4105   -1.6213    0.0000 C   0  0  0  0  0  0  0  0  0  0  0  0
   -1.9032   -0.9502    0.0000 C   0  0  0  0  0  0  0  0  0  0  0  0
   -2.5706   -0.4653    0.0000 O   0  0  0  0  0  0  0  0  0  0  0  0
   -2.4844    0.3552    0.0000 C   0  0  0  0  0  0  0  0  0  0  0  0
    0.0992   -2.4049    0.0000 C   0  0  0  0  0  0  0  0  0  0  0  0
    0.8838   -2.1500    0.0000 C   0  0  0  0  0  0  0  0  0  0  0  0
    1.3687   -2.8174    0.0000 C   0  0  0  0  0  0  0  0  0  0  0  0
    0.8838   -3.4849    0.0000 N   0  0  0  0  0  0  0  0  0  0  0  0
    0.0992   -3.2299    0.0000 C   0  0  0  0  0  0  0  0  0  0  0  0
   -0.5683   -3.7149    0.0000 O   0  0  0  0  0  0  0  0  0  0  0  0
    1.1387   -1.3654    0.0000 C   0  0  0  0  0  0  0  0  0  0  0  0
    0.6538   -0.6979    0.0000 C   0  0  0  0  0  0  0  0  0  0  0  0
    1.1387   -0.0305    0.0000 N   0  0  0  0  0  0  0  0  0  0  0  0
    0.8838    0.7541    0.0000 C   0  0  0  0  0  0  0  0  0  0  0  0
    0.0768    0.9256    0.0000 O   0  0  0  0  0  0  0  0  0  0  0  0
   -0.1781    1.7103    0.0000 C   0  0  0  0  0  0  0  0  0  0  0  0
   -0.9851    1.8818    0.0000 C   0  0  0  0  0  0  0  0  0  0  0  0
   -1.2400    2.6664    0.0000 C   0  0  0  0  0  0  0  0  0  0  0  0
   -0.6880    3.2795    0.0000 C   0  0  0  0  0  0  0  0  0  0  0  0
    0.1190    3.1080    0.0000 C   0  0  0  0  0  0  0  0  0  0  0  0
    0.3739    2.3234    0.0000 C   0  0  0  0  0  0  0  0  0  0  0  0
    1.9233   -0.2854    0.0000 C   0  0  0  0  0  0  0  0  0  0  0  0
    2.6378    0.1271    0.0000 C   0  0  0  0  0  0  0  0  0  0  0  0
    3.3523   -0.2854    0.0000 C   0  0  0  0  0  0  0  0  0  0  0  0
    3.3523   -1.1104    0.0000 C   0  0  0  0  0  0  0  0  0  0  0  0
    2.6378   -1.5229    0.0000 C   0  0  0  0  0  0  0  0  0  0  0  0
    1.9233   -1.1104    0.0000 C   0  0  0  0  0  0  0  0  0  0  0  0
  1  2  1  0
  2  3  1  0
  3  4  2  0
  4  5  1  0
  5  6  2  0
  6  7  1  0
  7  8  1  0
  8  9  1  0
  7 10  2  0
  3 10  1  0
 10 11  1  0
 11 12  1  0
  5 13  1  0
 13 14  2  0
 14 15  1  0
 15 16  1  0
 16 17  1  0
 13 17  1  0
 17 18  2  0
 14 19  1  0
 19 20  2  0
 20 21  1  0
 21 22  1  0
 22 23  1  0
 23 24  1  0
 24 25  2  0
 25 26  1  0
 26 27  2  0
 27 28  1  0
 28 29  2  0
 24 29  1  0
 21 30  1  0
 30 31  2  0
 31 32  1  0
 32 33  2  0
 33 34  1  0
 34 35  2  0
 19 35  1  0
 30 35  1  0
M  END
>  <pIC50>  (369) 
4.70

>  <chembl_id>  (369) 
CHEMBL488811

>  <canonical_smiles>  (369) 
COc1cc(cc(OC)c1OC)C2=C(CNC2=O)c3cn(COc4ccccc4)c5ccccc35

$$$$
CHEMBL489083
     RDKit          2D

 32 37  0  0  0  0  0  0  0  0999 V2000
    0.5968    6.6141    0.0000 N   0  0  0  0  0  0  0  0  0  0  0  0
    1.2534    6.1146    0.0000 C   0  0  0  0  0  0  0  0  0  0  0  0
    2.0143    6.4335    0.0000 N   0  0  0  0  0  0  0  0  0  0  0  0
    1.1492    5.2962    0.0000 S   0  0  0  0  0  0  0  0  0  0  0  0
    1.8058    4.7968    0.0000 C   0  0  0  0  0  0  0  0  0  0  0  0
    1.7016    3.9784    0.0000 C   0  0  0  0  0  0  0  0  0  0  0  0
    2.3582    3.4789    0.0000 C   0  0  0  0  0  0  0  0  0  0  0  0
    2.2539    2.6605    0.0000 N   0  0  0  0  0  0  0  0  0  0  0  0
    1.5306    2.2638    0.0000 C   0  0  0  0  0  0  0  0  0  0  0  0
    0.7845    2.6158    0.0000 O   0  0  0  0  0  0  0  0  0  0  0  0
    1.6843    1.4533    0.0000 C   0  0  0  0  0  0  0  0  0  0  0  0
    2.5027    1.3490    0.0000 C   0  0  0  0  0  0  0  0  0  0  0  0
    2.8548    2.0951    0.0000 C   0  0  0  0  0  0  0  0  0  0  0  0
    3.6653    2.2489    0.0000 O   0  0  0  0  0  0  0  0  0  0  0  0
    2.9315    0.6442    0.0000 N   0  0  0  0  0  0  0  0  0  0  0  0
    2.6477   -0.1305    0.0000 C   0  0  0  0  0  0  0  0  0  0  0  0
    3.2968   -0.6397    0.0000 C   0  0  0  0  0  0  0  0  0  0  0  0
    3.9817   -0.1798    0.0000 C   0  0  0  0  0  0  0  0  0  0  0  0
    4.7818   -0.3810    0.0000 C   0  0  0  0  0  0  0  0  0  0  0  0
    5.3561    0.2113    0.0000 C   0  0  0  0  0  0  0  0  0  0  0  0
    5.1303    1.0048    0.0000 C   0  0  0  0  0  0  0  0  0  0  0  0
    4.3302    1.2060    0.0000 C   0  0  0  0  0  0  0  0  0  0  0  0
    3.7559    0.6137    0.0000 C   0  0  0  0  0  0  0  0  0  0  0  0
    1.8652   -0.3917    0.0000 C   0  0  0  0  0  0  0  0  0  0  0  0
    1.7451   -1.2521    0.0000 C   0  0  0  0  0  0  0  0  0  0  0  0
    0.9891   -1.5824    0.0000 C   0  0  0  0  0  0  0  0  0  0  0  0
    0.3250   -1.0928    0.0000 C   0  0  0  0  0  0  0  0  0  0  0  0
    0.4170   -0.2729    0.0000 C   0  0  0  0  0  0  0  0  0  0  0  0
   -0.1307    0.3440    0.0000 C   0  0  0  0  0  0  0  0  0  0  0  0
    0.2868    1.0556    0.0000 C   0  0  0  0  0  0  0  0  0  0  0  0
    1.0926    0.8784    0.0000 N   0  0  0  0  0  0  0  0  0  0  0  0
    1.1730    0.0574    0.0000 C   0  0  0  0  0  0  0  0  0  0  0  0
  1  2  1  0
  2  3  2  0
  2  4  1  0
  4  5  1  0
  5  6  1  0
  6  7  1  0
  7  8  1  0
  8  9  1  0
  9 10  2  0
  9 11  1  0
 11 12  2  0
 12 13  1  0
  8 13  1  0
 13 14  2  0
 12 15  1  0
 15 16  1  0
 16 17  2  0
 17 18  1  0
 18 19  2  0
 19 20  1  0
 20 21  2  0
 21 22  1  0
 22 23  2  0
 15 23  1  0
 18 23  1  0
 16 24  1  0
 24 25  1  0
 25 26  2  0
 26 27  1  0
 27 28  2  0
 28 29  1  0
 29 30  2  0
 30 31  1  0
 11 31  1  0
 31 32  1  0
 24 32  2  0
 28 32  1  0
M  END
>  <pIC50>  (370) 
5.44

>  <chembl_id>  (370) 
CHEMBL489083

>  <canonical_smiles>  (370) 
NC(=N)SCCCN1C(=O)C2=C(C1=O)n3c(cc4ccccc34)c5cccc6ccn2c56

$$$$
CHEMBL495545
     RDKit          2D

 29 33  0  0  0  0  0  0  0  0999 V2000
   -0.0517   -9.6532    0.0000 C   0  0  0  0  0  0  0  0  0  0  0  0
    0.2033   -8.8685    0.0000 N   0  0  0  0  0  0  0  0  0  0  0  0
   -0.3488   -8.2554    0.0000 C   0  0  0  0  0  0  0  0  0  0  0  0
   -0.0938   -7.4708    0.0000 C   0  0  0  0  0  0  0  0  0  0  0  0
    0.7132   -7.2993    0.0000 N   0  0  0  0  0  0  0  0  0  0  0  0
    1.2652   -7.9124    0.0000 C   0  0  0  0  0  0  0  0  0  0  0  0
    1.0102   -8.6970    0.0000 C   0  0  0  0  0  0  0  0  0  0  0  0
    0.9681   -6.5147    0.0000 C   0  0  0  0  0  0  0  0  0  0  0  0
    0.4161   -5.9016    0.0000 C   0  0  0  0  0  0  0  0  0  0  0  0
    0.6710   -5.1170    0.0000 C   0  0  0  0  0  0  0  0  0  0  0  0
    1.4780   -4.9454    0.0000 C   0  0  0  0  0  0  0  0  0  0  0  0
    1.7329   -4.1608    0.0000 N   0  0  0  0  0  0  0  0  0  0  0  0
    1.1809   -3.5477    0.0000 C   0  0  0  0  0  0  0  0  0  0  0  0
    0.3739   -3.7192    0.0000 N   0  0  0  0  0  0  0  0  0  0  0  0
   -0.1781   -3.1062    0.0000 C   0  0  0  0  0  0  0  0  0  0  0  0
    0.0768   -2.3215    0.0000 C   0  0  0  0  0  0  0  0  0  0  0  0
    0.8838   -2.1500    0.0000 C   0  0  0  0  0  0  0  0  0  0  0  0
    1.4358   -2.7631    0.0000 N   0  0  0  0  0  0  0  0  0  0  0  0
    1.1387   -1.3654    0.0000 C   0  0  0  0  0  0  0  0  0  0  0  0
    0.6538   -0.6979    0.0000 C   0  0  0  0  0  0  0  0  0  0  0  0
    1.1387   -0.0305    0.0000 N   0  0  0  0  0  0  0  0  0  0  0  0
    1.9233   -0.2854    0.0000 N   0  0  0  0  0  0  0  0  0  0  0  0
    2.6378    0.1271    0.0000 N   0  0  0  0  0  0  0  0  0  0  0  0
    3.3523   -0.2854    0.0000 C   0  0  0  0  0  0  0  0  0  0  0  0
    3.3523   -1.1104    0.0000 C   0  0  0  0  0  0  0  0  0  0  0  0
    2.6378   -1.5229    0.0000 C   0  0  0  0  0  0  0  0  0  0  0  0
    1.9233   -1.1104    0.0000 C   0  0  0  0  0  0  0  0  0  0  0  0
    2.0300   -5.5585    0.0000 C   0  0  0  0  0  0  0  0  0  0  0  0
    1.7751   -6.3432    0.0000 C   0  0  0  0  0  0  0  0  0  0  0  0
  1  2  1  0
  2  3  1  0
  3  4  1  0
  4  5  1  0
  5  6  1  0
  6  7  1  0
  2  7  1  0
  5  8  1  0
  8  9  2  0
  9 10  1  0
 10 11  2  0
 11 12  1  0
 12 13  1  0
 13 14  2  0
 14 15  1  0
 15 16  2  0
 16 17  1  0
 17 18  2  0
 13 18  1  0
 17 19  1  0
 19 20  1  0
 20 21  2  0
 21 22  1  0
 22 23  1  0
 23 24  2  0
 24 25  1  0
 25 26  2  0
 26 27  1  0
 19 27  2  0
 22 27  1  0
 11 28  1  0
 28 29  2  0
  8 29  1  0
M  END
>  <pIC50>  (371) 
7.00

>  <chembl_id>  (371) 
CHEMBL495545

>  <canonical_smiles>  (371) 
CN1CCN(CC1)c2ccc(Nc3nccc(n3)c4cnn5ncccc45)cc2

$$$$
CHEMBL495696
     RDKit          2D

 24 27  0  0  0  0  0  0  0  0999 V2000
    2.8791   -7.5693    0.0000 N   0  0  0  0  0  0  0  0  0  0  0  0
    2.3271   -6.9562    0.0000 C   0  0  0  0  0  0  0  0  0  0  0  0
    1.7751   -6.3432    0.0000 C   0  0  0  0  0  0  0  0  0  0  0  0
    0.9681   -6.5147    0.0000 C   0  0  0  0  0  0  0  0  0  0  0  0
    0.4161   -5.9016    0.0000 C   0  0  0  0  0  0  0  0  0  0  0  0
    0.6710   -5.1170    0.0000 C   0  0  0  0  0  0  0  0  0  0  0  0
    1.4780   -4.9454    0.0000 C   0  0  0  0  0  0  0  0  0  0  0  0
    1.7329   -4.1608    0.0000 N   0  0  0  0  0  0  0  0  0  0  0  0
    1.1809   -3.5477    0.0000 C   0  0  0  0  0  0  0  0  0  0  0  0
    0.3739   -3.7192    0.0000 N   0  0  0  0  0  0  0  0  0  0  0  0
   -0.1781   -3.1062    0.0000 C   0  0  0  0  0  0  0  0  0  0  0  0
    0.0768   -2.3215    0.0000 C   0  0  0  0  0  0  0  0  0  0  0  0
    0.8838   -2.1500    0.0000 C   0  0  0  0  0  0  0  0  0  0  0  0
    1.4358   -2.7631    0.0000 N   0  0  0  0  0  0  0  0  0  0  0  0
    1.1387   -1.3654    0.0000 C   0  0  0  0  0  0  0  0  0  0  0  0
    0.6538   -0.6979    0.0000 C   0  0  0  0  0  0  0  0  0  0  0  0
    1.1387   -0.0305    0.0000 N   0  0  0  0  0  0  0  0  0  0  0  0
    1.9233   -0.2854    0.0000 N   0  0  0  0  0  0  0  0  0  0  0  0
    2.6378    0.1271    0.0000 N   0  0  0  0  0  0  0  0  0  0  0  0
    3.3523   -0.2854    0.0000 C   0  0  0  0  0  0  0  0  0  0  0  0
    3.3523   -1.1104    0.0000 C   0  0  0  0  0  0  0  0  0  0  0  0
    2.6378   -1.5229    0.0000 C   0  0  0  0  0  0  0  0  0  0  0  0
    1.9233   -1.1104    0.0000 C   0  0  0  0  0  0  0  0  0  0  0  0
    2.0300   -5.5585    0.0000 C   0  0  0  0  0  0  0  0  0  0  0  0
  1  2  3  0
  2  3  1  0
  3  4  2  0
  4  5  1  0
  5  6  2  0
  6  7  1  0
  7  8  1  0
  8  9  1  0
  9 10  2  0
 10 11  1  0
 11 12  2  0
 12 13  1  0
 13 14  2  0
  9 14  1  0
 13 15  1  0
 15 16  1  0
 16 17  2  0
 17 18  1  0
 18 19  1  0
 19 20  2  0
 20 21  1  0
 21 22  2  0
 22 23  1  0
 15 23  2  0
 18 23  1  0
  7 24  2  0
  3 24  1  0
M  END
>  <pIC50>  (372) 
8.70

>  <chembl_id>  (372) 
CHEMBL495696

>  <canonical_smiles>  (372) 
N#Cc1cccc(Nc2nccc(n2)c3cnn4ncccc34)c1

$$$$
CHEMBL495751
     RDKit          2D

 32 35  0  0  0  0  0  0  0  0999 V2000
    6.9846    5.1849    0.0000 C   0  0  0  0  0  0  0  0  0  0  0  0
    7.6990    5.5974    0.0000 C   0  0  0  0  0  0  0  0  0  0  0  0
    8.4135    5.1849    0.0000 N   0  0  0  0  0  0  0  0  0  0  0  0
    8.4135    4.3599    0.0000 C   0  0  0  0  0  0  0  0  0  0  0  0
    7.6990    3.9474    0.0000 C   0  0  0  0  0  0  0  0  0  0  0  0
    9.1280    5.5974    0.0000 C   0  0  0  0  0  0  0  0  0  0  0  0
    9.8424    5.1849    0.0000 C   0  0  0  0  0  0  0  0  0  0  0  0
   10.5569    5.5974    0.0000 N   0  0  0  0  0  0  0  0  0  0  0  0
   11.2714    5.1849    0.0000 C   0  0  0  0  0  0  0  0  0  0  0  0
   11.2714    4.3599    0.0000 O   0  0  0  0  0  0  0  0  0  0  0  0
   11.9859    5.5974    0.0000 C   0  0  0  0  0  0  0  0  0  0  0  0
   11.9859    6.4224    0.0000 C   0  0  0  0  0  0  0  0  0  0  0  0
   12.7003    6.8349    0.0000 C   0  0  0  0  0  0  0  0  0  0  0  0
   13.4148    6.4224    0.0000 C   0  0  0  0  0  0  0  0  0  0  0  0
   13.4148    5.5974    0.0000 C   0  0  0  0  0  0  0  0  0  0  0  0
   14.1293    5.1849    0.0000 N   0  0  0  0  0  0  0  0  0  0  0  0
   14.8437    5.5974    0.0000 C   0  0  0  0  0  0  0  0  0  0  0  0
   14.8437    6.4224    0.0000 N   0  0  0  0  0  0  0  0  0  0  0  0
   15.5582    6.8349    0.0000 C   0  0  0  0  0  0  0  0  0  0  0  0
   16.2727    6.4224    0.0000 C   0  0  0  0  0  0  0  0  0  0  0  0
   16.2727    5.5974    0.0000 C   0  0  0  0  0  0  0  0  0  0  0  0
   15.5582    5.1849    0.0000 N   0  0  0  0  0  0  0  0  0  0  0  0
   16.9872    5.1849    0.0000 C   0  0  0  0  0  0  0  0  0  0  0  0
   17.7408    5.5204    0.0000 C   0  0  0  0  0  0  0  0  0  0  0  0
   18.2929    4.9073    0.0000 N   0  0  0  0  0  0  0  0  0  0  0  0
   17.8804    4.1929    0.0000 N   0  0  0  0  0  0  0  0  0  0  0  0
   18.1353    3.4082    0.0000 N   0  0  0  0  0  0  0  0  0  0  0  0
   17.5833    2.7951    0.0000 C   0  0  0  0  0  0  0  0  0  0  0  0
   16.7763    2.9667    0.0000 C   0  0  0  0  0  0  0  0  0  0  0  0
   16.5214    3.7513    0.0000 C   0  0  0  0  0  0  0  0  0  0  0  0
   17.0734    4.3644    0.0000 C   0  0  0  0  0  0  0  0  0  0  0  0
   12.7003    5.1849    0.0000 C   0  0  0  0  0  0  0  0  0  0  0  0
  1  2  1  0
  2  3  1  0
  3  4  1  0
  4  5  1  0
  3  6  1  0
  6  7  1  0
  7  8  1  0
  8  9  1  0
  9 10  2  0
  9 11  1  0
 11 12  2  0
 12 13  1  0
 13 14  2  0
 14 15  1  0
 15 16  1  0
 16 17  1  0
 17 18  2  0
 18 19  1  0
 19 20  2  0
 20 21  1  0
 21 22  2  0
 17 22  1  0
 21 23  1  0
 23 24  1  0
 24 25  2  0
 25 26  1  0
 26 27  1  0
 27 28  2  0
 28 29  1  0
 29 30  2  0
 30 31  1  0
 23 31  2  0
 26 31  1  0
 15 32  2  0
 11 32  1  0
M  END
>  <pIC50>  (373) 
7.40

>  <chembl_id>  (373) 
CHEMBL495751

>  <canonical_smiles>  (373) 
CCN(CC)CCNC(=O)c1cccc(Nc2nccc(n2)c3cnn4ncccc34)c1

$$$$
CHEMBL496162
     RDKit          2D

 33 37  0  0  0  0  0  0  0  0999 V2000
    4.7812    3.5854    0.0000 C   0  0  0  0  0  0  0  0  0  0  0  0
    4.0668    3.1729    0.0000 C   0  0  0  0  0  0  0  0  0  0  0  0
    3.3523    3.5854    0.0000 C   0  0  0  0  0  0  0  0  0  0  0  0
    4.0668    2.3479    0.0000 O   0  0  0  0  0  0  0  0  0  0  0  0
    3.3523    1.9354    0.0000 C   0  0  0  0  0  0  0  0  0  0  0  0
    3.3523    1.1104    0.0000 C   0  0  0  0  0  0  0  0  0  0  0  0
    2.6378    0.6979    0.0000 C   0  0  0  0  0  0  0  0  0  0  0  0
    1.9233    1.1104    0.0000 C   0  0  0  0  0  0  0  0  0  0  0  0
    1.1387    0.8555    0.0000 C   0  0  0  0  0  0  0  0  0  0  0  0
    0.6538    1.5229    0.0000 C   0  0  0  0  0  0  0  0  0  0  0  0
    1.1387    2.1904    0.0000 N   0  0  0  0  0  0  0  0  0  0  0  0
    1.9233    1.9354    0.0000 N   0  0  0  0  0  0  0  0  0  0  0  0
    2.6378    2.3479    0.0000 N   0  0  0  0  0  0  0  0  0  0  0  0
    0.8838    0.0709    0.0000 C   0  0  0  0  0  0  0  0  0  0  0  0
    1.4358   -0.5422    0.0000 C   0  0  0  0  0  0  0  0  0  0  0  0
    1.1809   -1.3268    0.0000 C   0  0  0  0  0  0  0  0  0  0  0  0
    0.3739   -1.4984    0.0000 N   0  0  0  0  0  0  0  0  0  0  0  0
   -0.1781   -0.8853    0.0000 C   0  0  0  0  0  0  0  0  0  0  0  0
   -0.9851   -1.0568    0.0000 N   0  0  0  0  0  0  0  0  0  0  0  0
   -1.5371   -0.4437    0.0000 C   0  0  0  0  0  0  0  0  0  0  0  0
   -2.3441   -0.6152    0.0000 C   0  0  0  0  0  0  0  0  0  0  0  0
   -2.8961   -0.0021    0.0000 C   0  0  0  0  0  0  0  0  0  0  0  0
   -2.6412    0.7825    0.0000 C   0  0  0  0  0  0  0  0  0  0  0  0
   -1.8342    0.9540    0.0000 C   0  0  0  0  0  0  0  0  0  0  0  0
   -1.2822    0.3409    0.0000 C   0  0  0  0  0  0  0  0  0  0  0  0
   -3.1932    1.3956    0.0000 N   0  0  0  0  0  0  0  0  0  0  0  0
   -4.0002    1.2241    0.0000 C   0  0  0  0  0  0  0  0  0  0  0  0
   -4.5522    1.8372    0.0000 C   0  0  0  0  0  0  0  0  0  0  0  0
   -4.2973    2.6218    0.0000 N   0  0  0  0  0  0  0  0  0  0  0  0
   -4.8493    3.2349    0.0000 C   0  0  0  0  0  0  0  0  0  0  0  0
   -3.4903    2.7933    0.0000 C   0  0  0  0  0  0  0  0  0  0  0  0
   -2.9383    2.1802    0.0000 C   0  0  0  0  0  0  0  0  0  0  0  0
    0.0768   -0.1006    0.0000 N   0  0  0  0  0  0  0  0  0  0  0  0
  1  2  1  0
  2  3  1  0
  2  4  1  0
  4  5  1  0
  5  6  1  0
  6  7  2  0
  7  8  1  0
  8  9  2  0
  9 10  1  0
 10 11  2  0
 11 12  1  0
  8 12  1  0
 12 13  1  0
  5 13  2  0
  9 14  1  0
 14 15  2  0
 15 16  1  0
 16 17  2  0
 17 18  1  0
 18 19  1  0
 19 20  1  0
 20 21  2  0
 21 22  1  0
 22 23  2  0
 23 24  1  0
 24 25  2  0
 20 25  1  0
 23 26  1  0
 26 27  1  0
 27 28  1  0
 28 29  1  0
 29 30  1  0
 29 31  1  0
 31 32  1  0
 26 32  1  0
 18 33  2  0
 14 33  1  0
M  END
>  <pIC50>  (374) 
6.64

>  <chembl_id>  (374) 
CHEMBL496162

>  <canonical_smiles>  (374) 
CC(C)Oc1ccc2c(cnn2n1)c3ccnc(Nc4ccc(cc4)N5CCN(C)CC5)n3

$$$$
CHEMBL496481
     RDKit          2D

 27 30  0  0  0  0  0  0  0  0999 V2000
   -2.7697   -8.7700    0.0000 F   0  0  0  0  0  0  0  0  0  0  0  0
   -2.5147   -7.9854    0.0000 C   0  0  0  0  0  0  0  0  0  0  0  0
   -3.0668   -7.3723    0.0000 C   0  0  0  0  0  0  0  0  0  0  0  0
   -2.8118   -6.5877    0.0000 C   0  0  0  0  0  0  0  0  0  0  0  0
   -2.0049   -6.4162    0.0000 C   0  0  0  0  0  0  0  0  0  0  0  0
   -1.4528   -7.0293    0.0000 C   0  0  0  0  0  0  0  0  0  0  0  0
   -1.7078   -7.8139    0.0000 C   0  0  0  0  0  0  0  0  0  0  0  0
   -1.7499   -5.6315    0.0000 C   0  0  0  0  0  0  0  0  0  0  0  0
   -2.3020   -5.0184    0.0000 C   0  0  0  0  0  0  0  0  0  0  0  0
   -2.0470   -4.2338    0.0000 C   0  0  0  0  0  0  0  0  0  0  0  0
   -1.2400   -4.0623    0.0000 C   0  0  0  0  0  0  0  0  0  0  0  0
   -0.6880   -4.6754    0.0000 C   0  0  0  0  0  0  0  0  0  0  0  0
   -0.9429   -5.4600    0.0000 C   0  0  0  0  0  0  0  0  0  0  0  0
   -0.9851   -3.2777    0.0000 C   0  0  0  0  0  0  0  0  0  0  0  0
   -1.5371   -2.6646    0.0000 O   0  0  0  0  0  0  0  0  0  0  0  0
   -0.1781   -3.1062    0.0000 N   0  0  0  0  0  0  0  0  0  0  0  0
    0.0768   -2.3215    0.0000 C   0  0  0  0  0  0  0  0  0  0  0  0
    0.8838   -2.1500    0.0000 C   0  0  0  0  0  0  0  0  0  0  0  0
    1.1387   -1.3654    0.0000 C   0  0  0  0  0  0  0  0  0  0  0  0
    0.6538   -0.6979    0.0000 C   0  0  0  0  0  0  0  0  0  0  0  0
    1.1387   -0.0305    0.0000 N   0  0  0  0  0  0  0  0  0  0  0  0
    1.9233   -0.2854    0.0000 C   0  0  0  0  0  0  0  0  0  0  0  0
    2.6378    0.1271    0.0000 C   0  0  0  0  0  0  0  0  0  0  0  0
    3.3523   -0.2854    0.0000 C   0  0  0  0  0  0  0  0  0  0  0  0
    3.3523   -1.1104    0.0000 C   0  0  0  0  0  0  0  0  0  0  0  0
    2.6378   -1.5229    0.0000 C   0  0  0  0  0  0  0  0  0  0  0  0
    1.9233   -1.1104    0.0000 C   0  0  0  0  0  0  0  0  0  0  0  0
  1  2  1  0
  2  3  2  0
  3  4  1  0
  4  5  2  0
  5  6  1  0
  6  7  2  0
  2  7  1  0
  5  8  1  0
  8  9  2  0
  9 10  1  0
 10 11  2  0
 11 12  1  0
 12 13  2  0
  8 13  1  0
 11 14  1  0
 14 15  2  0
 14 16  1  0
 16 17  1  0
 17 18  1  0
 18 19  1  0
 19 20  2  0
 20 21  1  0
 21 22  1  0
 22 23  2  0
 23 24  1  0
 24 25  2  0
 25 26  1  0
 26 27  2  0
 19 27  1  0
 22 27  1  0
M  END
>  <pIC50>  (375) 
3.12

>  <chembl_id>  (375) 
CHEMBL496481

>  <canonical_smiles>  (375) 
Fc1ccc(cc1)c2ccc(cc2)C(=O)NCCc3c[nH]c4ccccc34

$$$$
CHEMBL496482
     RDKit          2D

 27 30  0  0  0  0  0  0  0  0999 V2000
   -2.7697   -8.7700    0.0000 C   0  0  0  0  0  0  0  0  0  0  0  0
   -2.5147   -7.9854    0.0000 C   0  0  0  0  0  0  0  0  0  0  0  0
   -3.0668   -7.3723    0.0000 C   0  0  0  0  0  0  0  0  0  0  0  0
   -2.8118   -6.5877    0.0000 C   0  0  0  0  0  0  0  0  0  0  0  0
   -2.0049   -6.4162    0.0000 C   0  0  0  0  0  0  0  0  0  0  0  0
   -1.4528   -7.0293    0.0000 C   0  0  0  0  0  0  0  0  0  0  0  0
   -1.7078   -7.8139    0.0000 C   0  0  0  0  0  0  0  0  0  0  0  0
   -1.7499   -5.6315    0.0000 C   0  0  0  0  0  0  0  0  0  0  0  0
   -2.3020   -5.0184    0.0000 C   0  0  0  0  0  0  0  0  0  0  0  0
   -2.0470   -4.2338    0.0000 C   0  0  0  0  0  0  0  0  0  0  0  0
   -1.2400   -4.0623    0.0000 C   0  0  0  0  0  0  0  0  0  0  0  0
   -0.6880   -4.6754    0.0000 C   0  0  0  0  0  0  0  0  0  0  0  0
   -0.9429   -5.4600    0.0000 C   0  0  0  0  0  0  0  0  0  0  0  0
   -0.9851   -3.2777    0.0000 C   0  0  0  0  0  0  0  0  0  0  0  0
   -1.5371   -2.6646    0.0000 O   0  0  0  0  0  0  0  0  0  0  0  0
   -0.1781   -3.1062    0.0000 N   0  0  0  0  0  0  0  0  0  0  0  0
    0.0768   -2.3215    0.0000 C   0  0  0  0  0  0  0  0  0  0  0  0
    0.8838   -2.1500    0.0000 C   0  0  0  0  0  0  0  0  0  0  0  0
    1.1387   -1.3654    0.0000 C   0  0  0  0  0  0  0  0  0  0  0  0
    0.6538   -0.6979    0.0000 C   0  0  0  0  0  0  0  0  0  0  0  0
    1.1387   -0.0305    0.0000 N   0  0  0  0  0  0  0  0  0  0  0  0
    1.9233   -0.2854    0.0000 C   0  0  0  0  0  0  0  0  0  0  0  0
    2.6378    0.1271    0.0000 C   0  0  0  0  0  0  0  0  0  0  0  0
    3.3523   -0.2854    0.0000 C   0  0  0  0  0  0  0  0  0  0  0  0
    3.3523   -1.1104    0.0000 C   0  0  0  0  0  0  0  0  0  0  0  0
    2.6378   -1.5229    0.0000 C   0  0  0  0  0  0  0  0  0  0  0  0
    1.9233   -1.1104    0.0000 C   0  0  0  0  0  0  0  0  0  0  0  0
  1  2  1  0
  2  3  2  0
  3  4  1  0
  4  5  2  0
  5  6  1  0
  6  7  2  0
  2  7  1  0
  5  8  1  0
  8  9  2  0
  9 10  1  0
 10 11  2  0
 11 12  1  0
 12 13  2  0
  8 13  1  0
 11 14  1  0
 14 15  2  0
 14 16  1  0
 16 17  1  0
 17 18  1  0
 18 19  1  0
 19 20  2  0
 20 21  1  0
 21 22  1  0
 22 23  2  0
 23 24  1  0
 24 25  2  0
 25 26  1  0
 26 27  2  0
 19 27  1  0
 22 27  1  0
M  END
>  <pIC50>  (376) 
3.09

>  <chembl_id>  (376) 
CHEMBL496482

>  <canonical_smiles>  (376) 
Cc1ccc(cc1)c2ccc(cc2)C(=O)NCCc3c[nH]c4ccccc34

$$$$
CHEMBL497454
     RDKit          2D

 27 30  0  0  0  0  0  0  0  0999 V2000
    2.5399   -3.9893    0.0000 F   0  0  0  0  0  0  0  0  0  0  0  0
    1.7329   -4.1608    0.0000 C   0  0  0  0  0  0  0  0  0  0  0  0
    1.4780   -4.9454    0.0000 C   0  0  0  0  0  0  0  0  0  0  0  0
    0.6710   -5.1170    0.0000 C   0  0  0  0  0  0  0  0  0  0  0  0
    0.1190   -4.5039    0.0000 C   0  0  0  0  0  0  0  0  0  0  0  0
    0.3739   -3.7192    0.0000 C   0  0  0  0  0  0  0  0  0  0  0  0
    1.1809   -3.5477    0.0000 C   0  0  0  0  0  0  0  0  0  0  0  0
   -0.6880   -4.6754    0.0000 C   0  0  0  0  0  0  0  0  0  0  0  0
   -0.9429   -5.4600    0.0000 C   0  0  0  0  0  0  0  0  0  0  0  0
   -1.7499   -5.6315    0.0000 C   0  0  0  0  0  0  0  0  0  0  0  0
   -2.3020   -5.0184    0.0000 C   0  0  0  0  0  0  0  0  0  0  0  0
   -2.0470   -4.2338    0.0000 C   0  0  0  0  0  0  0  0  0  0  0  0
   -1.2400   -4.0623    0.0000 C   0  0  0  0  0  0  0  0  0  0  0  0
   -0.9851   -3.2777    0.0000 C   0  0  0  0  0  0  0  0  0  0  0  0
   -1.5371   -2.6646    0.0000 O   0  0  0  0  0  0  0  0  0  0  0  0
   -0.1781   -3.1062    0.0000 N   0  0  0  0  0  0  0  0  0  0  0  0
    0.0768   -2.3215    0.0000 C   0  0  0  0  0  0  0  0  0  0  0  0
    0.8838   -2.1500    0.0000 C   0  0  0  0  0  0  0  0  0  0  0  0
    1.1387   -1.3654    0.0000 C   0  0  0  0  0  0  0  0  0  0  0  0
    0.6538   -0.6979    0.0000 C   0  0  0  0  0  0  0  0  0  0  0  0
    1.1387   -0.0305    0.0000 N   0  0  0  0  0  0  0  0  0  0  0  0
    1.9233   -0.2854    0.0000 C   0  0  0  0  0  0  0  0  0  0  0  0
    2.6378    0.1271    0.0000 C   0  0  0  0  0  0  0  0  0  0  0  0
    3.3523   -0.2854    0.0000 C   0  0  0  0  0  0  0  0  0  0  0  0
    3.3523   -1.1104    0.0000 C   0  0  0  0  0  0  0  0  0  0  0  0
    2.6378   -1.5229    0.0000 C   0  0  0  0  0  0  0  0  0  0  0  0
    1.9233   -1.1104    0.0000 C   0  0  0  0  0  0  0  0  0  0  0  0
  1  2  1  0
  2  3  2  0
  3  4  1  0
  4  5  2  0
  5  6  1  0
  6  7  2  0
  2  7  1  0
  5  8  1  0
  8  9  2  0
  9 10  1  0
 10 11  2  0
 11 12  1  0
 12 13  2  0
  8 13  1  0
 13 14  1  0
 14 15  2  0
 14 16  1  0
 16 17  1  0
 17 18  1  0
 18 19  1  0
 19 20  2  0
 20 21  1  0
 21 22  1  0
 22 23  2  0
 23 24  1  0
 24 25  2  0
 25 26  1  0
 26 27  2  0
 19 27  1  0
 22 27  1  0
M  END
>  <pIC50>  (377) 
2.92

>  <chembl_id>  (377) 
CHEMBL497454

>  <canonical_smiles>  (377) 
Fc1ccc(cc1)c2ccccc2C(=O)NCCc3c[nH]c4ccccc34

$$$$
CHEMBL497564
     RDKit          2D

 27 31  0  0  0  0  0  0  0  0999 V2000
    1.7329   -4.1608    0.0000 N   0  0  0  0  0  0  0  0  0  0  0  0
    1.4780   -4.9454    0.0000 C   0  0  0  0  0  0  0  0  0  0  0  0
    2.0300   -5.5585    0.0000 C   0  0  0  0  0  0  0  0  0  0  0  0
    1.7751   -6.3432    0.0000 C   0  0  0  0  0  0  0  0  0  0  0  0
    0.9681   -6.5147    0.0000 C   0  0  0  0  0  0  0  0  0  0  0  0
    0.4161   -5.9016    0.0000 C   0  0  0  0  0  0  0  0  0  0  0  0
    0.6710   -5.1170    0.0000 C   0  0  0  0  0  0  0  0  0  0  0  0
   -0.3909   -6.0731    0.0000 C   0  0  0  0  0  0  0  0  0  0  0  0
   -0.7265   -6.8268    0.0000 C   0  0  0  0  0  0  0  0  0  0  0  0
   -1.5470   -6.7406    0.0000 O   0  0  0  0  0  0  0  0  0  0  0  0
   -1.7185   -5.9336    0.0000 C   0  0  0  0  0  0  0  0  0  0  0  0
   -1.0040   -5.5211    0.0000 N   0  0  0  0  0  0  0  0  0  0  0  0
    1.1809   -3.5477    0.0000 C   0  0  0  0  0  0  0  0  0  0  0  0
    0.3739   -3.7192    0.0000 N   0  0  0  0  0  0  0  0  0  0  0  0
   -0.1781   -3.1062    0.0000 C   0  0  0  0  0  0  0  0  0  0  0  0
    0.0768   -2.3215    0.0000 C   0  0  0  0  0  0  0  0  0  0  0  0
    0.8838   -2.1500    0.0000 C   0  0  0  0  0  0  0  0  0  0  0  0
    1.4358   -2.7631    0.0000 N   0  0  0  0  0  0  0  0  0  0  0  0
    1.1387   -1.3654    0.0000 C   0  0  0  0  0  0  0  0  0  0  0  0
    0.6538   -0.6979    0.0000 C   0  0  0  0  0  0  0  0  0  0  0  0
    1.1387   -0.0305    0.0000 N   0  0  0  0  0  0  0  0  0  0  0  0
    1.9233   -0.2854    0.0000 N   0  0  0  0  0  0  0  0  0  0  0  0
    2.6378    0.1271    0.0000 N   0  0  0  0  0  0  0  0  0  0  0  0
    3.3523   -0.2854    0.0000 C   0  0  0  0  0  0  0  0  0  0  0  0
    3.3523   -1.1104    0.0000 C   0  0  0  0  0  0  0  0  0  0  0  0
    2.6378   -1.5229    0.0000 C   0  0  0  0  0  0  0  0  0  0  0  0
    1.9233   -1.1104    0.0000 C   0  0  0  0  0  0  0  0  0  0  0  0
  1  2  1  0
  2  3  2  0
  3  4  1  0
  4  5  2  0
  5  6  1  0
  6  7  2  0
  2  7  1  0
  6  8  1  0
  8  9  2  0
  9 10  1  0
 10 11  1  0
 11 12  2  0
  8 12  1  0
  1 13  1  0
 13 14  2  0
 14 15  1  0
 15 16  2  0
 16 17  1  0
 17 18  2  0
 13 18  1  0
 17 19  1  0
 19 20  1  0
 20 21  2  0
 21 22  1  0
 22 23  1  0
 23 24  2  0
 24 25  1  0
 25 26  2  0
 26 27  1  0
 19 27  2  0
 22 27  1  0
M  END
>  <pIC50>  (378) 
8.52

>  <chembl_id>  (378) 
CHEMBL497564

>  <canonical_smiles>  (378) 
N(c1cccc(c1)c2cocn2)c3nccc(n3)c4cnn5ncccc45

$$$$
CHEMBL498130
     RDKit          2D

 26 29  0  0  0  0  0  0  0  0999 V2000
   -1.5371   -2.6646    0.0000 O   0  0  0  0  0  0  0  0  0  0  0  0
   -0.9851   -3.2777    0.0000 C   0  0  0  0  0  0  0  0  0  0  0  0
   -0.1781   -3.1062    0.0000 N   0  0  0  0  0  0  0  0  0  0  0  0
    0.0768   -2.3215    0.0000 C   0  0  0  0  0  0  0  0  0  0  0  0
    0.8838   -2.1500    0.0000 C   0  0  0  0  0  0  0  0  0  0  0  0
    1.1387   -1.3654    0.0000 C   0  0  0  0  0  0  0  0  0  0  0  0
    0.6538   -0.6979    0.0000 C   0  0  0  0  0  0  0  0  0  0  0  0
    1.1387   -0.0305    0.0000 N   0  0  0  0  0  0  0  0  0  0  0  0
    1.9233   -0.2854    0.0000 C   0  0  0  0  0  0  0  0  0  0  0  0
    2.6378    0.1271    0.0000 C   0  0  0  0  0  0  0  0  0  0  0  0
    3.3523   -0.2854    0.0000 C   0  0  0  0  0  0  0  0  0  0  0  0
    3.3523   -1.1104    0.0000 C   0  0  0  0  0  0  0  0  0  0  0  0
    2.6378   -1.5229    0.0000 C   0  0  0  0  0  0  0  0  0  0  0  0
    1.9233   -1.1104    0.0000 C   0  0  0  0  0  0  0  0  0  0  0  0
   -1.2400   -4.0623    0.0000 C   0  0  0  0  0  0  0  0  0  0  0  0
   -0.6880   -4.6754    0.0000 C   0  0  0  0  0  0  0  0  0  0  0  0
   -0.9429   -5.4600    0.0000 C   0  0  0  0  0  0  0  0  0  0  0  0
   -1.7499   -5.6315    0.0000 C   0  0  0  0  0  0  0  0  0  0  0  0
   -2.3020   -5.0184    0.0000 C   0  0  0  0  0  0  0  0  0  0  0  0
   -2.0470   -4.2338    0.0000 C   0  0  0  0  0  0  0  0  0  0  0  0
   -3.1089   -5.1900    0.0000 C   0  0  0  0  0  0  0  0  0  0  0  0
   -3.3639   -5.9746    0.0000 C   0  0  0  0  0  0  0  0  0  0  0  0
   -4.1708   -6.1461    0.0000 C   0  0  0  0  0  0  0  0  0  0  0  0
   -4.7229   -5.5330    0.0000 C   0  0  0  0  0  0  0  0  0  0  0  0
   -4.4679   -4.7484    0.0000 C   0  0  0  0  0  0  0  0  0  0  0  0
   -3.6610   -4.5769    0.0000 C   0  0  0  0  0  0  0  0  0  0  0  0
  1  2  2  0
  2  3  1  0
  3  4  1  0
  4  5  1  0
  5  6  1  0
  6  7  2  0
  7  8  1  0
  8  9  1  0
  9 10  2  0
 10 11  1  0
 11 12  2  0
 12 13  1  0
 13 14  2  0
  6 14  1  0
  9 14  1  0
  2 15  1  0
 15 16  2  0
 16 17  1  0
 17 18  2  0
 18 19  1  0
 19 20  2  0
 15 20  1  0
 19 21  1  0
 21 22  2  0
 22 23  1  0
 23 24  2  0
 24 25  1  0
 25 26  2  0
 21 26  1  0
M  END
>  <pIC50>  (379) 
3.00

>  <chembl_id>  (379) 
CHEMBL498130

>  <canonical_smiles>  (379) 
O=C(NCCc1c[nH]c2ccccc12)c3cccc(c3)c4ccccc4

$$$$
CHEMBL498520
     RDKit          2D

 28 31  0  0  0  0  0  0  0  0999 V2000
    0.3739   -3.7192    0.0000 C   0  0  0  0  0  0  0  0  0  0  0  0
    1.1809   -3.5477    0.0000 N   0  0  0  0  0  0  0  0  0  0  0  0
    1.4358   -2.7631    0.0000 C   0  0  0  0  0  0  0  0  0  0  0  0
    0.8838   -2.1500    0.0000 C   0  0  0  0  0  0  0  0  0  0  0  0
    1.1387   -1.3654    0.0000 C   0  0  0  0  0  0  0  0  0  0  0  0
    0.6538   -0.6979    0.0000 C   0  0  0  0  0  0  0  0  0  0  0  0
    1.1387   -0.0305    0.0000 N   0  0  0  0  0  0  0  0  0  0  0  0
    1.9233   -0.2854    0.0000 C   0  0  0  0  0  0  0  0  0  0  0  0
    2.6378    0.1271    0.0000 C   0  0  0  0  0  0  0  0  0  0  0  0
    3.3523   -0.2854    0.0000 C   0  0  0  0  0  0  0  0  0  0  0  0
    3.3523   -1.1104    0.0000 C   0  0  0  0  0  0  0  0  0  0  0  0
    2.6378   -1.5229    0.0000 C   0  0  0  0  0  0  0  0  0  0  0  0
    1.9233   -1.1104    0.0000 C   0  0  0  0  0  0  0  0  0  0  0  0
    1.7329   -4.1608    0.0000 C   0  0  0  0  0  0  0  0  0  0  0  0
    2.5399   -3.9893    0.0000 O   0  0  0  0  0  0  0  0  0  0  0  0
    1.4780   -4.9454    0.0000 C   0  0  0  0  0  0  0  0  0  0  0  0
    2.0300   -5.5585    0.0000 C   0  0  0  0  0  0  0  0  0  0  0  0
    1.7751   -6.3432    0.0000 C   0  0  0  0  0  0  0  0  0  0  0  0
    0.9681   -6.5147    0.0000 C   0  0  0  0  0  0  0  0  0  0  0  0
    0.4161   -5.9016    0.0000 C   0  0  0  0  0  0  0  0  0  0  0  0
    0.6710   -5.1170    0.0000 C   0  0  0  0  0  0  0  0  0  0  0  0
    0.7132   -7.2993    0.0000 C   0  0  0  0  0  0  0  0  0  0  0  0
    1.2652   -7.9124    0.0000 C   0  0  0  0  0  0  0  0  0  0  0  0
    1.0102   -8.6970    0.0000 C   0  0  0  0  0  0  0  0  0  0  0  0
    0.2033   -8.8685    0.0000 C   0  0  0  0  0  0  0  0  0  0  0  0
   -0.0517   -9.6532    0.0000 F   0  0  0  0  0  0  0  0  0  0  0  0
   -0.3488   -8.2554    0.0000 C   0  0  0  0  0  0  0  0  0  0  0  0
   -0.0938   -7.4708    0.0000 C   0  0  0  0  0  0  0  0  0  0  0  0
  1  2  1  0
  2  3  1  0
  3  4  1  0
  4  5  1  0
  5  6  2  0
  6  7  1  0
  7  8  1  0
  8  9  2  0
  9 10  1  0
 10 11  2  0
 11 12  1  0
 12 13  2  0
  5 13  1  0
  8 13  1  0
  2 14  1  0
 14 15  2  0
 14 16  1  0
 16 17  2  0
 17 18  1  0
 18 19  2  0
 19 20  1  0
 20 21  2  0
 16 21  1  0
 19 22  1  0
 22 23  2  0
 23 24  1  0
 24 25  2  0
 25 26  1  0
 25 27  1  0
 27 28  2  0
 22 28  1  0
M  END
>  <pIC50>  (380) 
3.06

>  <chembl_id>  (380) 
CHEMBL498520

>  <canonical_smiles>  (380) 
CN(CCc1c[nH]c2ccccc12)C(=O)c3ccc(cc3)c4ccc(F)cc4

$$$$
CHEMBL498521
     RDKit          2D

 31 34  0  0  0  0  0  0  0  0999 V2000
    0.3739   -3.7192    0.0000 C   0  0  0  0  0  0  0  0  0  0  0  0
    1.1809   -3.5477    0.0000 N   0  0  0  0  0  0  0  0  0  0  0  0
    1.4358   -2.7631    0.0000 C   0  0  0  0  0  0  0  0  0  0  0  0
    0.8838   -2.1500    0.0000 C   0  0  0  0  0  0  0  0  0  0  0  0
    1.1387   -1.3654    0.0000 C   0  0  0  0  0  0  0  0  0  0  0  0
    0.6538   -0.6979    0.0000 C   0  0  0  0  0  0  0  0  0  0  0  0
    1.1387   -0.0305    0.0000 N   0  0  0  0  0  0  0  0  0  0  0  0
    1.9233   -0.2854    0.0000 C   0  0  0  0  0  0  0  0  0  0  0  0
    2.6378    0.1271    0.0000 C   0  0  0  0  0  0  0  0  0  0  0  0
    3.3523   -0.2854    0.0000 C   0  0  0  0  0  0  0  0  0  0  0  0
    3.3523   -1.1104    0.0000 C   0  0  0  0  0  0  0  0  0  0  0  0
    2.6378   -1.5229    0.0000 C   0  0  0  0  0  0  0  0  0  0  0  0
    1.9233   -1.1104    0.0000 C   0  0  0  0  0  0  0  0  0  0  0  0
    1.7329   -4.1608    0.0000 C   0  0  0  0  0  0  0  0  0  0  0  0
    2.5399   -3.9893    0.0000 O   0  0  0  0  0  0  0  0  0  0  0  0
    1.4780   -4.9454    0.0000 C   0  0  0  0  0  0  0  0  0  0  0  0
    2.0300   -5.5585    0.0000 C   0  0  0  0  0  0  0  0  0  0  0  0
    1.7751   -6.3432    0.0000 C   0  0  0  0  0  0  0  0  0  0  0  0
    0.9681   -6.5147    0.0000 C   0  0  0  0  0  0  0  0  0  0  0  0
    0.4161   -5.9016    0.0000 C   0  0  0  0  0  0  0  0  0  0  0  0
    0.6710   -5.1170    0.0000 C   0  0  0  0  0  0  0  0  0  0  0  0
    0.7132   -7.2993    0.0000 C   0  0  0  0  0  0  0  0  0  0  0  0
    1.2652   -7.9124    0.0000 C   0  0  0  0  0  0  0  0  0  0  0  0
    1.0102   -8.6970    0.0000 C   0  0  0  0  0  0  0  0  0  0  0  0
    0.2033   -8.8685    0.0000 C   0  0  0  0  0  0  0  0  0  0  0  0
   -0.3488   -8.2554    0.0000 C   0  0  0  0  0  0  0  0  0  0  0  0
   -0.0938   -7.4708    0.0000 C   0  0  0  0  0  0  0  0  0  0  0  0
   -0.0517   -9.6532    0.0000 C   0  0  0  0  0  0  0  0  0  0  0  0
   -0.3066  -10.4378    0.0000 C   0  0  0  0  0  0  0  0  0  0  0  0
   -0.8363   -9.3982    0.0000 C   0  0  0  0  0  0  0  0  0  0  0  0
    0.7330   -9.9081    0.0000 C   0  0  0  0  0  0  0  0  0  0  0  0
  1  2  1  0
  2  3  1  0
  3  4  1  0
  4  5  1  0
  5  6  2  0
  6  7  1  0
  7  8  1  0
  8  9  2  0
  9 10  1  0
 10 11  2  0
 11 12  1  0
 12 13  2  0
  5 13  1  0
  8 13  1  0
  2 14  1  0
 14 15  2  0
 14 16  1  0
 16 17  2  0
 17 18  1  0
 18 19  2  0
 19 20  1  0
 20 21  2  0
 16 21  1  0
 19 22  1  0
 22 23  2  0
 23 24  1  0
 24 25  2  0
 25 26  1  0
 26 27  2  0
 22 27  1  0
 25 28  1  0
 28 29  1  0
 28 30  1  0
 28 31  1  0
M  END
>  <pIC50>  (381) 
3.13

>  <chembl_id>  (381) 
CHEMBL498521

>  <canonical_smiles>  (381) 
CN(CCc1c[nH]c2ccccc12)C(=O)c3ccc(cc3)c4ccc(cc4)C(C)(C)C

$$$$
CHEMBL498705
     RDKit          2D

 33 37  0  0  0  0  0  0  0  0999 V2000
    0.3739   -3.7192    0.0000 C   0  0  0  0  0  0  0  0  0  0  0  0
    1.1809   -3.5477    0.0000 N   0  0  0  0  0  0  0  0  0  0  0  0
    1.4358   -2.7631    0.0000 C   0  0  0  0  0  0  0  0  0  0  0  0
    0.8838   -2.1500    0.0000 C   0  0  0  0  0  0  0  0  0  0  0  0
    1.1387   -1.3654    0.0000 C   0  0  0  0  0  0  0  0  0  0  0  0
    0.6538   -0.6979    0.0000 C   0  0  0  0  0  0  0  0  0  0  0  0
    1.1387   -0.0305    0.0000 N   0  0  0  0  0  0  0  0  0  0  0  0
    1.9233   -0.2854    0.0000 C   0  0  0  0  0  0  0  0  0  0  0  0
    2.6378    0.1271    0.0000 C   0  0  0  0  0  0  0  0  0  0  0  0
    3.3523   -0.2854    0.0000 C   0  0  0  0  0  0  0  0  0  0  0  0
    3.3523   -1.1104    0.0000 C   0  0  0  0  0  0  0  0  0  0  0  0
    2.6378   -1.5229    0.0000 C   0  0  0  0  0  0  0  0  0  0  0  0
    1.9233   -1.1104    0.0000 C   0  0  0  0  0  0  0  0  0  0  0  0
    1.7329   -4.1608    0.0000 C   0  0  0  0  0  0  0  0  0  0  0  0
    2.5399   -3.9893    0.0000 O   0  0  0  0  0  0  0  0  0  0  0  0
    1.4780   -4.9454    0.0000 C   0  0  0  0  0  0  0  0  0  0  0  0
    2.0300   -5.5585    0.0000 C   0  0  0  0  0  0  0  0  0  0  0  0
    1.7751   -6.3432    0.0000 C   0  0  0  0  0  0  0  0  0  0  0  0
    0.9681   -6.5147    0.0000 C   0  0  0  0  0  0  0  0  0  0  0  0
    0.4161   -5.9016    0.0000 C   0  0  0  0  0  0  0  0  0  0  0  0
    0.6710   -5.1170    0.0000 C   0  0  0  0  0  0  0  0  0  0  0  0
    0.7132   -7.2993    0.0000 C   0  0  0  0  0  0  0  0  0  0  0  0
    1.2652   -7.9124    0.0000 C   0  0  0  0  0  0  0  0  0  0  0  0
    1.0102   -8.6970    0.0000 C   0  0  0  0  0  0  0  0  0  0  0  0
    0.2033   -8.8685    0.0000 C   0  0  0  0  0  0  0  0  0  0  0  0
   -0.3488   -8.2554    0.0000 C   0  0  0  0  0  0  0  0  0  0  0  0
   -0.0938   -7.4708    0.0000 C   0  0  0  0  0  0  0  0  0  0  0  0
   -0.0517   -9.6532    0.0000 C   0  0  0  0  0  0  0  0  0  0  0  0
    0.5004  -10.2663    0.0000 C   0  0  0  0  0  0  0  0  0  0  0  0
    0.2454  -11.0509    0.0000 C   0  0  0  0  0  0  0  0  0  0  0  0
   -0.5615  -11.2224    0.0000 C   0  0  0  0  0  0  0  0  0  0  0  0
   -1.1136  -10.6093    0.0000 C   0  0  0  0  0  0  0  0  0  0  0  0
   -0.8586   -9.8247    0.0000 C   0  0  0  0  0  0  0  0  0  0  0  0
  1  2  1  0
  2  3  1  0
  3  4  1  0
  4  5  1  0
  5  6  2  0
  6  7  1  0
  7  8  1  0
  8  9  2  0
  9 10  1  0
 10 11  2  0
 11 12  1  0
 12 13  2  0
  5 13  1  0
  8 13  1  0
  2 14  1  0
 14 15  2  0
 14 16  1  0
 16 17  2  0
 17 18  1  0
 18 19  2  0
 19 20  1  0
 20 21  2  0
 16 21  1  0
 19 22  1  0
 22 23  2  0
 23 24  1  0
 24 25  2  0
 25 26  1  0
 26 27  2  0
 22 27  1  0
 25 28  1  0
 28 29  2  0
 29 30  1  0
 30 31  2  0
 31 32  1  0
 32 33  2  0
 28 33  1  0
M  END
>  <pIC50>  (382) 
4.04

>  <chembl_id>  (382) 
CHEMBL498705

>  <canonical_smiles>  (382) 
CN(CCc1c[nH]c2ccccc12)C(=O)c3ccc(cc3)c4ccc(cc4)c5ccccc5

$$$$
CHEMBL498710
     RDKit          2D

 30 33  0  0  0  0  0  0  0  0999 V2000
   -3.0246   -9.5547    0.0000 C   0  0  0  0  0  0  0  0  0  0  0  0
   -2.7697   -8.7700    0.0000 C   0  0  0  0  0  0  0  0  0  0  0  0
   -1.9851   -9.0250    0.0000 C   0  0  0  0  0  0  0  0  0  0  0  0
   -3.5543   -8.5151    0.0000 C   0  0  0  0  0  0  0  0  0  0  0  0
   -2.5147   -7.9854    0.0000 C   0  0  0  0  0  0  0  0  0  0  0  0
   -3.0668   -7.3723    0.0000 C   0  0  0  0  0  0  0  0  0  0  0  0
   -2.8118   -6.5877    0.0000 C   0  0  0  0  0  0  0  0  0  0  0  0
   -2.0049   -6.4162    0.0000 C   0  0  0  0  0  0  0  0  0  0  0  0
   -1.4528   -7.0293    0.0000 C   0  0  0  0  0  0  0  0  0  0  0  0
   -1.7078   -7.8139    0.0000 C   0  0  0  0  0  0  0  0  0  0  0  0
   -1.7499   -5.6315    0.0000 C   0  0  0  0  0  0  0  0  0  0  0  0
   -2.3020   -5.0184    0.0000 C   0  0  0  0  0  0  0  0  0  0  0  0
   -2.0470   -4.2338    0.0000 C   0  0  0  0  0  0  0  0  0  0  0  0
   -1.2400   -4.0623    0.0000 C   0  0  0  0  0  0  0  0  0  0  0  0
   -0.6880   -4.6754    0.0000 C   0  0  0  0  0  0  0  0  0  0  0  0
   -0.9429   -5.4600    0.0000 C   0  0  0  0  0  0  0  0  0  0  0  0
   -0.9851   -3.2777    0.0000 C   0  0  0  0  0  0  0  0  0  0  0  0
   -1.5371   -2.6646    0.0000 O   0  0  0  0  0  0  0  0  0  0  0  0
   -0.1781   -3.1062    0.0000 N   0  0  0  0  0  0  0  0  0  0  0  0
    0.0768   -2.3215    0.0000 C   0  0  0  0  0  0  0  0  0  0  0  0
    0.8838   -2.1500    0.0000 C   0  0  0  0  0  0  0  0  0  0  0  0
    1.1387   -1.3654    0.0000 C   0  0  0  0  0  0  0  0  0  0  0  0
    0.6538   -0.6979    0.0000 C   0  0  0  0  0  0  0  0  0  0  0  0
    1.1387   -0.0305    0.0000 N   0  0  0  0  0  0  0  0  0  0  0  0
    1.9233   -0.2854    0.0000 C   0  0  0  0  0  0  0  0  0  0  0  0
    2.6378    0.1271    0.0000 C   0  0  0  0  0  0  0  0  0  0  0  0
    3.3523   -0.2854    0.0000 C   0  0  0  0  0  0  0  0  0  0  0  0
    3.3523   -1.1104    0.0000 C   0  0  0  0  0  0  0  0  0  0  0  0
    2.6378   -1.5229    0.0000 C   0  0  0  0  0  0  0  0  0  0  0  0
    1.9233   -1.1104    0.0000 C   0  0  0  0  0  0  0  0  0  0  0  0
  1  2  1  0
  2  3  1  0
  2  4  1  0
  2  5  1  0
  5  6  2  0
  6  7  1  0
  7  8  2  0
  8  9  1  0
  9 10  2  0
  5 10  1  0
  8 11  1  0
 11 12  2  0
 12 13  1  0
 13 14  2  0
 14 15  1  0
 15 16  2  0
 11 16  1  0
 14 17  1  0
 17 18  2  0
 17 19  1  0
 19 20  1  0
 20 21  1  0
 21 22  1  0
 22 23  2  0
 23 24  1  0
 24 25  1  0
 25 26  2  0
 26 27  1  0
 27 28  2  0
 28 29  1  0
 29 30  2  0
 22 30  1  0
 25 30  1  0
M  END
>  <pIC50>  (383) 
3.10

>  <chembl_id>  (383) 
CHEMBL498710

>  <canonical_smiles>  (383) 
CC(C)(C)c1ccc(cc1)c2ccc(cc2)C(=O)NCCc3c[nH]c4ccccc34

$$$$
CHEMBL509435
     RDKit          2D

 28 31  0  0  0  0  0  0  0  0999 V2000
   -1.7307    0.6908    0.0000 C   0  0  0  0  0  0  0  0  0  0  0  0
   -1.0632    0.2059    0.0000 O   0  0  0  0  0  0  0  0  0  0  0  0
   -1.1495   -0.6146    0.0000 C   0  0  0  0  0  0  0  0  0  0  0  0
   -0.4820   -1.0995    0.0000 C   0  0  0  0  0  0  0  0  0  0  0  0
   -0.5683   -1.9200    0.0000 C   0  0  0  0  0  0  0  0  0  0  0  0
   -1.3220   -2.2556    0.0000 C   0  0  0  0  0  0  0  0  0  0  0  0
   -1.9894   -1.7707    0.0000 C   0  0  0  0  0  0  0  0  0  0  0  0
   -2.7431   -2.1062    0.0000 O   0  0  0  0  0  0  0  0  0  0  0  0
   -3.4105   -1.6213    0.0000 C   0  0  0  0  0  0  0  0  0  0  0  0
   -1.9032   -0.9502    0.0000 C   0  0  0  0  0  0  0  0  0  0  0  0
   -2.5706   -0.4653    0.0000 O   0  0  0  0  0  0  0  0  0  0  0  0
   -2.4844    0.3552    0.0000 C   0  0  0  0  0  0  0  0  0  0  0  0
    0.0992   -2.4049    0.0000 C   0  0  0  0  0  0  0  0  0  0  0  0
    0.8838   -2.1500    0.0000 C   0  0  0  0  0  0  0  0  0  0  0  0
    1.3687   -2.8174    0.0000 C   0  0  0  0  0  0  0  0  0  0  0  0
    2.1937   -2.8174    0.0000 O   0  0  0  0  0  0  0  0  0  0  0  0
    0.8838   -3.4849    0.0000 N   0  0  0  0  0  0  0  0  0  0  0  0
    0.0992   -3.2299    0.0000 C   0  0  0  0  0  0  0  0  0  0  0  0
    1.1387   -1.3654    0.0000 C   0  0  0  0  0  0  0  0  0  0  0  0
    0.6538   -0.6979    0.0000 C   0  0  0  0  0  0  0  0  0  0  0  0
    1.1387   -0.0305    0.0000 N   0  0  0  0  0  0  0  0  0  0  0  0
    0.8838    0.7541    0.0000 C   0  0  0  0  0  0  0  0  0  0  0  0
    1.9233   -0.2854    0.0000 C   0  0  0  0  0  0  0  0  0  0  0  0
    2.6378    0.1271    0.0000 C   0  0  0  0  0  0  0  0  0  0  0  0
    3.3523   -0.2854    0.0000 C   0  0  0  0  0  0  0  0  0  0  0  0
    3.3523   -1.1104    0.0000 C   0  0  0  0  0  0  0  0  0  0  0  0
    2.6378   -1.5229    0.0000 C   0  0  0  0  0  0  0  0  0  0  0  0
    1.9233   -1.1104    0.0000 C   0  0  0  0  0  0  0  0  0  0  0  0
  1  2  1  0
  2  3  1  0
  3  4  2  0
  4  5  1  0
  5  6  2  0
  6  7  1  0
  7  8  1  0
  8  9  1  0
  7 10  2  0
  3 10  1  0
 10 11  1  0
 11 12  1  0
  5 13  1  0
 13 14  2  0
 14 15  1  0
 15 16  2  0
 15 17  1  0
 17 18  1  0
 13 18  1  0
 14 19  1  0
 19 20  2  0
 20 21  1  0
 21 22  1  0
 21 23  1  0
 23 24  2  0
 24 25  1  0
 25 26  2  0
 26 27  1  0
 27 28  2  0
 19 28  1  0
 23 28  1  0
M  END
>  <pIC50>  (384) 
4.38

>  <chembl_id>  (384) 
CHEMBL509435

>  <canonical_smiles>  (384) 
COc1cc(cc(OC)c1OC)C2=C(C(=O)NC2)c3cn(C)c4ccccc34

$$$$
CHEMBL509499
     RDKit          2D

 28 32  0  0  0  0  0  0  0  0999 V2000
    3.4927    3.9926    0.0000 F   0  0  0  0  0  0  0  0  0  0  0  0
    4.2996    3.8210    0.0000 C   0  0  0  0  0  0  0  0  0  0  0  0
    4.8517    4.4341    0.0000 C   0  0  0  0  0  0  0  0  0  0  0  0
    5.6586    4.2626    0.0000 C   0  0  0  0  0  0  0  0  0  0  0  0
    5.9136    3.4780    0.0000 C   0  0  0  0  0  0  0  0  0  0  0  0
    5.3615    2.8649    0.0000 C   0  0  0  0  0  0  0  0  0  0  0  0
    4.5546    3.0364    0.0000 C   0  0  0  0  0  0  0  0  0  0  0  0
    5.6165    2.0803    0.0000 C   0  0  0  0  0  0  0  0  0  0  0  0
    6.4235    1.9087    0.0000 C   0  0  0  0  0  0  0  0  0  0  0  0
    6.6784    1.1241    0.0000 C   0  0  0  0  0  0  0  0  0  0  0  0
    6.1264    0.5110    0.0000 C   0  0  0  0  0  0  0  0  0  0  0  0
    5.3194    0.6825    0.0000 C   0  0  0  0  0  0  0  0  0  0  0  0
    5.0645    1.4672    0.0000 C   0  0  0  0  0  0  0  0  0  0  0  0
    4.7674    0.0694    0.0000 C   0  0  0  0  0  0  0  0  0  0  0  0
    5.0223   -0.7152    0.0000 O   0  0  0  0  0  0  0  0  0  0  0  0
    3.9604    0.2410    0.0000 N   0  0  0  0  0  0  0  0  0  0  0  0
    3.7054    1.0256    0.0000 C   0  0  0  0  0  0  0  0  0  0  0  0
    2.8985    1.1971    0.0000 C   0  0  0  0  0  0  0  0  0  0  0  0
    2.3464    0.5840    0.0000 C   0  0  0  0  0  0  0  0  0  0  0  0
    2.6014   -0.2006    0.0000 C   0  0  0  0  0  0  0  0  0  0  0  0
    3.4084   -0.3721    0.0000 C   0  0  0  0  0  0  0  0  0  0  0  0
    1.9339   -0.6855    0.0000 N   0  0  0  0  0  0  0  0  0  0  0  0
    1.2665   -0.2006    0.0000 C   0  0  0  0  0  0  0  0  0  0  0  0
    0.4595   -0.3721    0.0000 C   0  0  0  0  0  0  0  0  0  0  0  0
   -0.0925    0.2410    0.0000 C   0  0  0  0  0  0  0  0  0  0  0  0
    0.1624    1.0256    0.0000 C   0  0  0  0  0  0  0  0  0  0  0  0
    0.9694    1.1971    0.0000 C   0  0  0  0  0  0  0  0  0  0  0  0
    1.5214    0.5840    0.0000 C   0  0  0  0  0  0  0  0  0  0  0  0
  1  2  1  0
  2  3  2  0
  3  4  1  0
  4  5  2  0
  5  6  1  0
  6  7  2  0
  2  7  1  0
  6  8  1  0
  8  9  2  0
  9 10  1  0
 10 11  2  0
 11 12  1  0
 12 13  2  0
  8 13  1  0
 12 14  1  0
 14 15  2  0
 14 16  1  0
 16 17  1  0
 17 18  1  0
 18 19  1  0
 19 20  2  0
 20 21  1  0
 16 21  1  0
 20 22  1  0
 22 23  1  0
 23 24  2  0
 24 25  1  0
 25 26  2  0
 26 27  1  0
 27 28  2  0
 19 28  1  0
 23 28  1  0
M  END
>  <pIC50>  (385) 
3.21

>  <chembl_id>  (385) 
CHEMBL509499

>  <canonical_smiles>  (385) 
Fc1cccc(c1)c2cccc(c2)C(=O)N3CCc4c(C3)[nH]c5ccccc45

$$$$
CHEMBL513330
     RDKit          2D

 24 27  0  0  0  0  0  0  0  0999 V2000
    3.6861   -7.3978    0.0000 Cl  0  0  0  0  0  0  0  0  0  0  0  0
    3.1341   -6.7847    0.0000 C   0  0  0  0  0  0  0  0  0  0  0  0
    2.3271   -6.9562    0.0000 C   0  0  0  0  0  0  0  0  0  0  0  0
    1.7751   -6.3432    0.0000 C   0  0  0  0  0  0  0  0  0  0  0  0
    2.0300   -5.5585    0.0000 C   0  0  0  0  0  0  0  0  0  0  0  0
    1.4780   -4.9454    0.0000 C   0  0  0  0  0  0  0  0  0  0  0  0
    1.7329   -4.1608    0.0000 N   0  0  0  0  0  0  0  0  0  0  0  0
    1.1809   -3.5477    0.0000 C   0  0  0  0  0  0  0  0  0  0  0  0
    0.3739   -3.7192    0.0000 N   0  0  0  0  0  0  0  0  0  0  0  0
   -0.1781   -3.1062    0.0000 C   0  0  0  0  0  0  0  0  0  0  0  0
    0.0768   -2.3215    0.0000 C   0  0  0  0  0  0  0  0  0  0  0  0
    0.8838   -2.1500    0.0000 C   0  0  0  0  0  0  0  0  0  0  0  0
    1.4358   -2.7631    0.0000 N   0  0  0  0  0  0  0  0  0  0  0  0
    1.1387   -1.3654    0.0000 C   0  0  0  0  0  0  0  0  0  0  0  0
    0.6538   -0.6979    0.0000 C   0  0  0  0  0  0  0  0  0  0  0  0
    1.1387   -0.0305    0.0000 N   0  0  0  0  0  0  0  0  0  0  0  0
    1.9233   -0.2854    0.0000 N   0  0  0  0  0  0  0  0  0  0  0  0
    2.6378    0.1271    0.0000 N   0  0  0  0  0  0  0  0  0  0  0  0
    3.3523   -0.2854    0.0000 C   0  0  0  0  0  0  0  0  0  0  0  0
    3.3523   -1.1104    0.0000 C   0  0  0  0  0  0  0  0  0  0  0  0
    2.6378   -1.5229    0.0000 C   0  0  0  0  0  0  0  0  0  0  0  0
    1.9233   -1.1104    0.0000 C   0  0  0  0  0  0  0  0  0  0  0  0
    2.8370   -5.3870    0.0000 C   0  0  0  0  0  0  0  0  0  0  0  0
    3.3890   -6.0001    0.0000 C   0  0  0  0  0  0  0  0  0  0  0  0
  1  2  1  0
  2  3  2  0
  3  4  1  0
  4  5  2  0
  5  6  1  0
  6  7  1  0
  7  8  1  0
  8  9  2  0
  9 10  1  0
 10 11  2  0
 11 12  1  0
 12 13  2  0
  8 13  1  0
 12 14  1  0
 14 15  1  0
 15 16  2  0
 16 17  1  0
 17 18  1  0
 18 19  2  0
 19 20  1  0
 20 21  2  0
 21 22  1  0
 14 22  2  0
 17 22  1  0
  5 23  1  0
 23 24  2  0
  2 24  1  0
M  END
>  <pIC50>  (386) 
6.00

>  <chembl_id>  (386) 
CHEMBL513330

>  <canonical_smiles>  (386) 
Clc1ccc(CNc2nccc(n2)c3cnn4ncccc34)cc1

$$$$
CHEMBL513354
     RDKit          2D

 28 31  0  0  0  0  0  0  0  0999 V2000
    2.3693   -9.1386    0.0000 C   0  0  0  0  0  0  0  0  0  0  0  0
    2.6242   -8.3540    0.0000 C   0  0  0  0  0  0  0  0  0  0  0  0
    2.0722   -7.7409    0.0000 N   0  0  0  0  0  0  0  0  0  0  0  0
    1.2652   -7.9124    0.0000 C   0  0  0  0  0  0  0  0  0  0  0  0
    0.7132   -7.2993    0.0000 C   0  0  0  0  0  0  0  0  0  0  0  0
    2.3271   -6.9562    0.0000 C   0  0  0  0  0  0  0  0  0  0  0  0
    1.7751   -6.3432    0.0000 C   0  0  0  0  0  0  0  0  0  0  0  0
    0.9681   -6.5147    0.0000 C   0  0  0  0  0  0  0  0  0  0  0  0
    0.4161   -5.9016    0.0000 C   0  0  0  0  0  0  0  0  0  0  0  0
    0.6710   -5.1170    0.0000 C   0  0  0  0  0  0  0  0  0  0  0  0
    1.4780   -4.9454    0.0000 C   0  0  0  0  0  0  0  0  0  0  0  0
    1.7329   -4.1608    0.0000 N   0  0  0  0  0  0  0  0  0  0  0  0
    1.1809   -3.5477    0.0000 C   0  0  0  0  0  0  0  0  0  0  0  0
    0.3739   -3.7192    0.0000 N   0  0  0  0  0  0  0  0  0  0  0  0
   -0.1781   -3.1062    0.0000 C   0  0  0  0  0  0  0  0  0  0  0  0
    0.0768   -2.3215    0.0000 C   0  0  0  0  0  0  0  0  0  0  0  0
    0.8838   -2.1500    0.0000 C   0  0  0  0  0  0  0  0  0  0  0  0
    1.4358   -2.7631    0.0000 N   0  0  0  0  0  0  0  0  0  0  0  0
    1.1387   -1.3654    0.0000 C   0  0  0  0  0  0  0  0  0  0  0  0
    0.6538   -0.6979    0.0000 C   0  0  0  0  0  0  0  0  0  0  0  0
    1.1387   -0.0305    0.0000 N   0  0  0  0  0  0  0  0  0  0  0  0
    1.9233   -0.2854    0.0000 N   0  0  0  0  0  0  0  0  0  0  0  0
    2.6378    0.1271    0.0000 N   0  0  0  0  0  0  0  0  0  0  0  0
    3.3523   -0.2854    0.0000 C   0  0  0  0  0  0  0  0  0  0  0  0
    3.3523   -1.1104    0.0000 C   0  0  0  0  0  0  0  0  0  0  0  0
    2.6378   -1.5229    0.0000 C   0  0  0  0  0  0  0  0  0  0  0  0
    1.9233   -1.1104    0.0000 C   0  0  0  0  0  0  0  0  0  0  0  0
    2.0300   -5.5585    0.0000 C   0  0  0  0  0  0  0  0  0  0  0  0
  1  2  1  0
  2  3  1  0
  3  4  1  0
  4  5  1  0
  3  6  1  0
  6  7  1  0
  7  8  2  0
  8  9  1  0
  9 10  2  0
 10 11  1  0
 11 12  1  0
 12 13  1  0
 13 14  2  0
 14 15  1  0
 15 16  2  0
 16 17  1  0
 17 18  2  0
 13 18  1  0
 17 19  1  0
 19 20  1  0
 20 21  2  0
 21 22  1  0
 22 23  1  0
 23 24  2  0
 24 25  1  0
 25 26  2  0
 26 27  1  0
 19 27  2  0
 22 27  1  0
 11 28  2  0
  7 28  1  0
M  END
>  <pIC50>  (387) 
7.30

>  <chembl_id>  (387) 
CHEMBL513354

>  <canonical_smiles>  (387) 
CCN(CC)Cc1cccc(Nc2nccc(n2)c3cnn4ncccc34)c1

$$$$
CHEMBL514197
     RDKit          2D

 34 39  0  0  0  0  0  0  0  0999 V2000
   -3.3785    4.3436    0.0000 C   0  0  0  0  0  0  0  0  0  0  0  0
   -2.7654    3.7916    0.0000 O   0  0  0  0  0  0  0  0  0  0  0  0
   -2.9370    2.9846    0.0000 C   0  0  0  0  0  0  0  0  0  0  0  0
   -2.3239    2.4326    0.0000 C   0  0  0  0  0  0  0  0  0  0  0  0
   -2.4954    1.6256    0.0000 C   0  0  0  0  0  0  0  0  0  0  0  0
   -3.2800    1.3707    0.0000 C   0  0  0  0  0  0  0  0  0  0  0  0
   -3.8931    1.9227    0.0000 C   0  0  0  0  0  0  0  0  0  0  0  0
   -3.7216    2.7297    0.0000 C   0  0  0  0  0  0  0  0  0  0  0  0
   -4.3347    3.2817    0.0000 O   0  0  0  0  0  0  0  0  0  0  0  0
   -1.8823    1.0736    0.0000 C   0  0  0  0  0  0  0  0  0  0  0  0
   -1.0977    1.3285    0.0000 C   0  0  0  0  0  0  0  0  0  0  0  0
   -0.4846    0.7765    0.0000 C   0  0  0  0  0  0  0  0  0  0  0  0
   -0.6561   -0.0305    0.0000 C   0  0  0  0  0  0  0  0  0  0  0  0
   -0.1712   -0.6979    0.0000 C   0  0  0  0  0  0  0  0  0  0  0  0
   -0.6561   -1.3654    0.0000 N   0  0  0  0  0  0  0  0  0  0  0  0
   -1.4407   -1.1104    0.0000 N   0  0  0  0  0  0  0  0  0  0  0  0
   -1.4407   -0.2854    0.0000 C   0  0  0  0  0  0  0  0  0  0  0  0
   -2.0538    0.2666    0.0000 C   0  0  0  0  0  0  0  0  0  0  0  0
    0.6538   -0.6979    0.0000 C   0  0  0  0  0  0  0  0  0  0  0  0
    1.1387   -0.0305    0.0000 N   0  0  0  0  0  0  0  0  0  0  0  0
    1.9233   -0.2854    0.0000 C   0  0  0  0  0  0  0  0  0  0  0  0
    2.6378    0.1271    0.0000 C   0  0  0  0  0  0  0  0  0  0  0  0
    3.3523   -0.2854    0.0000 C   0  0  0  0  0  0  0  0  0  0  0  0
    3.3523   -1.1104    0.0000 C   0  0  0  0  0  0  0  0  0  0  0  0
    2.6378   -1.5229    0.0000 C   0  0  0  0  0  0  0  0  0  0  0  0
    1.9233   -1.1104    0.0000 C   0  0  0  0  0  0  0  0  0  0  0  0
    1.1387   -1.3654    0.0000 N   0  0  0  0  0  0  0  0  0  0  0  0
    2.6378    0.9521    0.0000 N   0  0  0  0  0  0  0  0  0  0  0  0
    1.9233    1.3646    0.0000 C   0  0  0  0  0  0  0  0  0  0  0  0
    1.9233    2.1896    0.0000 C   0  0  0  0  0  0  0  0  0  0  0  0
    2.6378    2.6021    0.0000 N   0  0  0  0  0  0  0  0  0  0  0  0
    2.6378    3.4271    0.0000 C   0  0  0  0  0  0  0  0  0  0  0  0
    3.3523    2.1896    0.0000 C   0  0  0  0  0  0  0  0  0  0  0  0
    3.3523    1.3646    0.0000 C   0  0  0  0  0  0  0  0  0  0  0  0
  1  2  1  0
  2  3  1  0
  3  4  2  0
  4  5  1  0
  5  6  2  0
  6  7  1  0
  7  8  2  0
  3  8  1  0
  8  9  1  0
  5 10  1  0
 10 11  2  0
 11 12  1  0
 12 13  2  0
 13 14  1  0
 14 15  2  0
 15 16  1  0
 16 17  1  0
 13 17  1  0
 17 18  2  0
 10 18  1  0
 14 19  1  0
 19 20  2  0
 20 21  1  0
 21 22  2  0
 22 23  1  0
 23 24  2  0
 24 25  1  0
 25 26  2  0
 21 26  1  0
 26 27  1  0
 19 27  1  0
 22 28  1  0
 28 29  1  0
 29 30  1  0
 30 31  1  0
 31 32  1  0
 31 33  1  0
 33 34  1  0
 28 34  1  0
M  END
>  <pIC50>  (388) 
8.39

>  <chembl_id>  (388) 
CHEMBL514197

>  <canonical_smiles>  (388) 
COc1cc(ccc1O)c2ccc3c(n[nH]c3c2)c4nc5c(cccc5[nH]4)N6CCN(C)CC6

$$$$
CHEMBL514316
     RDKit          2D

 32 37  0  0  0  0  0  0  0  0999 V2000
    0.5968   -5.7891    0.0000 N   0  0  0  0  0  0  0  0  0  0  0  0
    1.2534   -5.2896    0.0000 C   0  0  0  0  0  0  0  0  0  0  0  0
    2.0143   -5.6085    0.0000 N   0  0  0  0  0  0  0  0  0  0  0  0
    1.1492   -4.4712    0.0000 S   0  0  0  0  0  0  0  0  0  0  0  0
    1.8058   -3.9718    0.0000 C   0  0  0  0  0  0  0  0  0  0  0  0
    1.7016   -3.1534    0.0000 C   0  0  0  0  0  0  0  0  0  0  0  0
    2.3582   -2.6539    0.0000 C   0  0  0  0  0  0  0  0  0  0  0  0
    2.2539   -1.8355    0.0000 N   0  0  0  0  0  0  0  0  0  0  0  0
    2.8548   -1.2701    0.0000 C   0  0  0  0  0  0  0  0  0  0  0  0
    3.6653   -1.4239    0.0000 O   0  0  0  0  0  0  0  0  0  0  0  0
    2.5027   -0.5240    0.0000 C   0  0  0  0  0  0  0  0  0  0  0  0
    1.6843   -0.6283    0.0000 C   0  0  0  0  0  0  0  0  0  0  0  0
    1.5306   -1.4388    0.0000 C   0  0  0  0  0  0  0  0  0  0  0  0
    0.7845   -1.7908    0.0000 O   0  0  0  0  0  0  0  0  0  0  0  0
    1.0926   -0.0534    0.0000 N   0  0  0  0  0  0  0  0  0  0  0  0
    0.2868   -0.2306    0.0000 C   0  0  0  0  0  0  0  0  0  0  0  0
   -0.1307    0.4810    0.0000 C   0  0  0  0  0  0  0  0  0  0  0  0
    0.4170    1.0979    0.0000 C   0  0  0  0  0  0  0  0  0  0  0  0
    0.3250    1.9178    0.0000 C   0  0  0  0  0  0  0  0  0  0  0  0
    0.9891    2.4074    0.0000 C   0  0  0  0  0  0  0  0  0  0  0  0
    1.7451    2.0771    0.0000 C   0  0  0  0  0  0  0  0  0  0  0  0
    1.8652    1.2167    0.0000 C   0  0  0  0  0  0  0  0  0  0  0  0
    2.6477    0.9555    0.0000 C   0  0  0  0  0  0  0  0  0  0  0  0
    3.2968    1.4647    0.0000 C   0  0  0  0  0  0  0  0  0  0  0  0
    3.9817    1.0048    0.0000 C   0  0  0  0  0  0  0  0  0  0  0  0
    4.7818    1.2060    0.0000 C   0  0  0  0  0  0  0  0  0  0  0  0
    5.3561    0.6137    0.0000 C   0  0  0  0  0  0  0  0  0  0  0  0
    5.1303   -0.1798    0.0000 C   0  0  0  0  0  0  0  0  0  0  0  0
    4.3302   -0.3810    0.0000 C   0  0  0  0  0  0  0  0  0  0  0  0
    3.7559    0.2113    0.0000 C   0  0  0  0  0  0  0  0  0  0  0  0
    2.9315    0.1808    0.0000 N   0  0  0  0  0  0  0  0  0  0  0  0
    1.1730    0.7676    0.0000 C   0  0  0  0  0  0  0  0  0  0  0  0
  1  2  1  0
  2  3  2  0
  2  4  1  0
  4  5  1  0
  5  6  1  0
  6  7  1  0
  7  8  1  0
  8  9  1  0
  9 10  2  0
  9 11  1  0
 11 12  2  0
 12 13  1  0
  8 13  1  0
 13 14  2  0
 12 15  1  0
 15 16  1  0
 16 17  2  0
 17 18  1  0
 18 19  2  0
 19 20  1  0
 20 21  2  0
 21 22  1  0
 22 23  1  0
 23 24  1  0
 24 25  1  0
 25 26  2  0
 26 27  1  0
 27 28  2  0
 28 29  1  0
 29 30  2  0
 25 30  1  0
 30 31  1  0
 11 31  1  0
 23 31  1  0
 22 32  2  0
 15 32  1  0
 18 32  1  0
M  END
>  <pIC50>  (389) 
5.37

>  <chembl_id>  (389) 
CHEMBL514316

>  <canonical_smiles>  (389) 
NC(=N)SCCCN1C(=O)C2=C(C1=O)n3ccc4cccc(C5Cc6ccccc6N25)c34

$$$$
CHEMBL515051
     RDKit          2D

 26 29  0  0  0  0  0  0  0  0999 V2000
   -1.5371   -2.6646    0.0000 O   0  0  0  0  0  0  0  0  0  0  0  0
   -0.9851   -3.2777    0.0000 C   0  0  0  0  0  0  0  0  0  0  0  0
   -0.1781   -3.1062    0.0000 N   0  0  0  0  0  0  0  0  0  0  0  0
    0.0768   -2.3215    0.0000 C   0  0  0  0  0  0  0  0  0  0  0  0
    0.8838   -2.1500    0.0000 C   0  0  0  0  0  0  0  0  0  0  0  0
    1.1387   -1.3654    0.0000 C   0  0  0  0  0  0  0  0  0  0  0  0
    0.6538   -0.6979    0.0000 C   0  0  0  0  0  0  0  0  0  0  0  0
    1.1387   -0.0305    0.0000 N   0  0  0  0  0  0  0  0  0  0  0  0
    1.9233   -0.2854    0.0000 C   0  0  0  0  0  0  0  0  0  0  0  0
    2.6378    0.1271    0.0000 C   0  0  0  0  0  0  0  0  0  0  0  0
    3.3523   -0.2854    0.0000 C   0  0  0  0  0  0  0  0  0  0  0  0
    3.3523   -1.1104    0.0000 C   0  0  0  0  0  0  0  0  0  0  0  0
    2.6378   -1.5229    0.0000 C   0  0  0  0  0  0  0  0  0  0  0  0
    1.9233   -1.1104    0.0000 C   0  0  0  0  0  0  0  0  0  0  0  0
   -1.2400   -4.0623    0.0000 C   0  0  0  0  0  0  0  0  0  0  0  0
   -0.6880   -4.6754    0.0000 C   0  0  0  0  0  0  0  0  0  0  0  0
   -0.9429   -5.4600    0.0000 C   0  0  0  0  0  0  0  0  0  0  0  0
   -1.7499   -5.6315    0.0000 C   0  0  0  0  0  0  0  0  0  0  0  0
   -2.3020   -5.0184    0.0000 C   0  0  0  0  0  0  0  0  0  0  0  0
   -2.0470   -4.2338    0.0000 C   0  0  0  0  0  0  0  0  0  0  0  0
   -3.1089   -5.1900    0.0000 C   0  0  0  0  0  0  0  0  0  0  0  0
   -3.3639   -5.9746    0.0000 C   0  0  0  0  0  0  0  0  0  0  0  0
   -4.1708   -6.1461    0.0000 C   0  0  0  0  0  0  0  0  0  0  0  0
   -4.7229   -5.5330    0.0000 C   0  0  0  0  0  0  0  0  0  0  0  0
   -4.4679   -4.7484    0.0000 N   0  0  0  0  0  0  0  0  0  0  0  0
   -3.6610   -4.5769    0.0000 C   0  0  0  0  0  0  0  0  0  0  0  0
  1  2  2  0
  2  3  1  0
  3  4  1  0
  4  5  1  0
  5  6  1  0
  6  7  2  0
  7  8  1  0
  8  9  1  0
  9 10  2  0
 10 11  1  0
 11 12  2  0
 12 13  1  0
 13 14  2  0
  6 14  1  0
  9 14  1  0
  2 15  1  0
 15 16  2  0
 16 17  1  0
 17 18  2  0
 18 19  1  0
 19 20  2  0
 15 20  1  0
 19 21  1  0
 21 22  2  0
 22 23  1  0
 23 24  2  0
 24 25  1  0
 25 26  2  0
 21 26  1  0
M  END
>  <pIC50>  (390) 
3.82

>  <chembl_id>  (390) 
CHEMBL515051

>  <canonical_smiles>  (390) 
O=C(NCCc1c[nH]c2ccccc12)c3cccc(c3)c4cccnc4

$$$$
CHEMBL515356
     RDKit          2D

 28 32  0  0  0  0  0  0  0  0999 V2000
    5.5322   -2.2844    0.0000 C   0  0  0  0  0  0  0  0  0  0  0  0
    6.0842   -1.6713    0.0000 C   0  0  0  0  0  0  0  0  0  0  0  0
    6.8912   -1.8429    0.0000 C   0  0  0  0  0  0  0  0  0  0  0  0
    7.4432   -1.2298    0.0000 C   0  0  0  0  0  0  0  0  0  0  0  0
    7.1883   -0.4451    0.0000 C   0  0  0  0  0  0  0  0  0  0  0  0
    6.3813   -0.2736    0.0000 C   0  0  0  0  0  0  0  0  0  0  0  0
    5.8293   -0.8867    0.0000 C   0  0  0  0  0  0  0  0  0  0  0  0
    6.1264    0.5110    0.0000 C   0  0  0  0  0  0  0  0  0  0  0  0
    6.6784    1.1241    0.0000 C   0  0  0  0  0  0  0  0  0  0  0  0
    6.4235    1.9087    0.0000 C   0  0  0  0  0  0  0  0  0  0  0  0
    5.6165    2.0803    0.0000 C   0  0  0  0  0  0  0  0  0  0  0  0
    5.0645    1.4672    0.0000 C   0  0  0  0  0  0  0  0  0  0  0  0
    5.3194    0.6825    0.0000 C   0  0  0  0  0  0  0  0  0  0  0  0
    4.7674    0.0694    0.0000 C   0  0  0  0  0  0  0  0  0  0  0  0
    5.0223   -0.7152    0.0000 O   0  0  0  0  0  0  0  0  0  0  0  0
    3.9604    0.2410    0.0000 N   0  0  0  0  0  0  0  0  0  0  0  0
    3.7054    1.0256    0.0000 C   0  0  0  0  0  0  0  0  0  0  0  0
    2.8985    1.1971    0.0000 C   0  0  0  0  0  0  0  0  0  0  0  0
    2.3464    0.5840    0.0000 C   0  0  0  0  0  0  0  0  0  0  0  0
    2.6014   -0.2006    0.0000 C   0  0  0  0  0  0  0  0  0  0  0  0
    3.4084   -0.3721    0.0000 C   0  0  0  0  0  0  0  0  0  0  0  0
    1.9339   -0.6855    0.0000 N   0  0  0  0  0  0  0  0  0  0  0  0
    1.2665   -0.2006    0.0000 C   0  0  0  0  0  0  0  0  0  0  0  0
    0.4595   -0.3721    0.0000 C   0  0  0  0  0  0  0  0  0  0  0  0
   -0.0925    0.2410    0.0000 C   0  0  0  0  0  0  0  0  0  0  0  0
    0.1624    1.0256    0.0000 C   0  0  0  0  0  0  0  0  0  0  0  0
    0.9694    1.1971    0.0000 C   0  0  0  0  0  0  0  0  0  0  0  0
    1.5214    0.5840    0.0000 C   0  0  0  0  0  0  0  0  0  0  0  0
  1  2  1  0
  2  3  2  0
  3  4  1  0
  4  5  2  0
  5  6  1  0
  6  7  2  0
  2  7  1  0
  6  8  1  0
  8  9  2  0
  9 10  1  0
 10 11  2  0
 11 12  1  0
 12 13  2  0
  8 13  1  0
 13 14  1  0
 14 15  2  0
 14 16  1  0
 16 17  1  0
 17 18  1  0
 18 19  1  0
 19 20  2  0
 20 21  1  0
 16 21  1  0
 20 22  1  0
 22 23  1  0
 23 24  2  0
 24 25  1  0
 25 26  2  0
 26 27  1  0
 27 28  2  0
 19 28  1  0
 23 28  1  0
M  END
>  <pIC50>  (391) 
3.41

>  <chembl_id>  (391) 
CHEMBL515356

>  <canonical_smiles>  (391) 
Cc1cccc(c1)c2ccccc2C(=O)N3CCc4c(C3)[nH]c5ccccc45

$$$$
CHEMBL515674
     RDKit          2D

 28 32  0  0  0  0  0  0  0  0999 V2000
    5.5322   -2.2844    0.0000 F   0  0  0  0  0  0  0  0  0  0  0  0
    6.0842   -1.6713    0.0000 C   0  0  0  0  0  0  0  0  0  0  0  0
    6.8912   -1.8429    0.0000 C   0  0  0  0  0  0  0  0  0  0  0  0
    7.4432   -1.2298    0.0000 C   0  0  0  0  0  0  0  0  0  0  0  0
    7.1883   -0.4451    0.0000 C   0  0  0  0  0  0  0  0  0  0  0  0
    6.3813   -0.2736    0.0000 C   0  0  0  0  0  0  0  0  0  0  0  0
    5.8293   -0.8867    0.0000 C   0  0  0  0  0  0  0  0  0  0  0  0
    6.1264    0.5110    0.0000 C   0  0  0  0  0  0  0  0  0  0  0  0
    6.6784    1.1241    0.0000 C   0  0  0  0  0  0  0  0  0  0  0  0
    6.4235    1.9087    0.0000 C   0  0  0  0  0  0  0  0  0  0  0  0
    5.6165    2.0803    0.0000 C   0  0  0  0  0  0  0  0  0  0  0  0
    5.0645    1.4672    0.0000 C   0  0  0  0  0  0  0  0  0  0  0  0
    5.3194    0.6825    0.0000 C   0  0  0  0  0  0  0  0  0  0  0  0
    4.7674    0.0694    0.0000 C   0  0  0  0  0  0  0  0  0  0  0  0
    5.0223   -0.7152    0.0000 O   0  0  0  0  0  0  0  0  0  0  0  0
    3.9604    0.2410    0.0000 N   0  0  0  0  0  0  0  0  0  0  0  0
    3.7054    1.0256    0.0000 C   0  0  0  0  0  0  0  0  0  0  0  0
    2.8985    1.1971    0.0000 C   0  0  0  0  0  0  0  0  0  0  0  0
    2.3464    0.5840    0.0000 C   0  0  0  0  0  0  0  0  0  0  0  0
    2.6014   -0.2006    0.0000 C   0  0  0  0  0  0  0  0  0  0  0  0
    3.4084   -0.3721    0.0000 C   0  0  0  0  0  0  0  0  0  0  0  0
    1.9339   -0.6855    0.0000 N   0  0  0  0  0  0  0  0  0  0  0  0
    1.2665   -0.2006    0.0000 C   0  0  0  0  0  0  0  0  0  0  0  0
    0.4595   -0.3721    0.0000 C   0  0  0  0  0  0  0  0  0  0  0  0
   -0.0925    0.2410    0.0000 C   0  0  0  0  0  0  0  0  0  0  0  0
    0.1624    1.0256    0.0000 C   0  0  0  0  0  0  0  0  0  0  0  0
    0.9694    1.1971    0.0000 C   0  0  0  0  0  0  0  0  0  0  0  0
    1.5214    0.5840    0.0000 C   0  0  0  0  0  0  0  0  0  0  0  0
  1  2  1  0
  2  3  2  0
  3  4  1  0
  4  5  2  0
  5  6  1  0
  6  7  2  0
  2  7  1  0
  6  8  1  0
  8  9  2  0
  9 10  1  0
 10 11  2  0
 11 12  1  0
 12 13  2  0
  8 13  1  0
 13 14  1  0
 14 15  2  0
 14 16  1  0
 16 17  1  0
 17 18  1  0
 18 19  1  0
 19 20  2  0
 20 21  1  0
 16 21  1  0
 20 22  1  0
 22 23  1  0
 23 24  2  0
 24 25  1  0
 25 26  2  0
 26 27  1  0
 27 28  2  0
 19 28  1  0
 23 28  1  0
M  END
>  <pIC50>  (392) 
3.32

>  <chembl_id>  (392) 
CHEMBL515674

>  <canonical_smiles>  (392) 
Fc1cccc(c1)c2ccccc2C(=O)N3CCc4c(C3)[nH]c5ccccc45

$$$$
CHEMBL516244
     RDKit          2D

 33 38  0  0  0  0  0  0  0  0999 V2000
   -4.2362    0.3087    0.0000 C   0  0  0  0  0  0  0  0  0  0  0  0
   -3.4516    0.5637    0.0000 O   0  0  0  0  0  0  0  0  0  0  0  0
   -3.2800    1.3707    0.0000 C   0  0  0  0  0  0  0  0  0  0  0  0
   -3.8931    1.9227    0.0000 C   0  0  0  0  0  0  0  0  0  0  0  0
   -3.7216    2.7297    0.0000 C   0  0  0  0  0  0  0  0  0  0  0  0
   -2.9370    2.9846    0.0000 C   0  0  0  0  0  0  0  0  0  0  0  0
   -2.3239    2.4326    0.0000 C   0  0  0  0  0  0  0  0  0  0  0  0
   -2.4954    1.6256    0.0000 C   0  0  0  0  0  0  0  0  0  0  0  0
   -1.8823    1.0736    0.0000 C   0  0  0  0  0  0  0  0  0  0  0  0
   -1.0977    1.3285    0.0000 C   0  0  0  0  0  0  0  0  0  0  0  0
   -0.4846    0.7765    0.0000 C   0  0  0  0  0  0  0  0  0  0  0  0
   -0.6561   -0.0305    0.0000 C   0  0  0  0  0  0  0  0  0  0  0  0
   -0.1712   -0.6979    0.0000 C   0  0  0  0  0  0  0  0  0  0  0  0
   -0.6561   -1.3654    0.0000 N   0  0  0  0  0  0  0  0  0  0  0  0
   -1.4407   -1.1104    0.0000 N   0  0  0  0  0  0  0  0  0  0  0  0
   -1.4407   -0.2854    0.0000 C   0  0  0  0  0  0  0  0  0  0  0  0
   -2.0538    0.2666    0.0000 C   0  0  0  0  0  0  0  0  0  0  0  0
    0.6538   -0.6979    0.0000 C   0  0  0  0  0  0  0  0  0  0  0  0
    1.1387   -0.0305    0.0000 N   0  0  0  0  0  0  0  0  0  0  0  0
    1.9233   -0.2854    0.0000 C   0  0  0  0  0  0  0  0  0  0  0  0
    2.6378    0.1271    0.0000 C   0  0  0  0  0  0  0  0  0  0  0  0
    3.3523   -0.2854    0.0000 C   0  0  0  0  0  0  0  0  0  0  0  0
    3.3523   -1.1104    0.0000 C   0  0  0  0  0  0  0  0  0  0  0  0
    2.6378   -1.5229    0.0000 C   0  0  0  0  0  0  0  0  0  0  0  0
    1.9233   -1.1104    0.0000 C   0  0  0  0  0  0  0  0  0  0  0  0
    1.1387   -1.3654    0.0000 N   0  0  0  0  0  0  0  0  0  0  0  0
    2.6378    0.9521    0.0000 N   0  0  0  0  0  0  0  0  0  0  0  0
    1.9233    1.3646    0.0000 C   0  0  0  0  0  0  0  0  0  0  0  0
    1.9233    2.1896    0.0000 C   0  0  0  0  0  0  0  0  0  0  0  0
    2.6378    2.6021    0.0000 N   0  0  0  0  0  0  0  0  0  0  0  0
    2.6378    3.4271    0.0000 C   0  0  0  0  0  0  0  0  0  0  0  0
    3.3523    2.1896    0.0000 C   0  0  0  0  0  0  0  0  0  0  0  0
    3.3523    1.3646    0.0000 C   0  0  0  0  0  0  0  0  0  0  0  0
  1  2  1  0
  2  3  1  0
  3  4  2  0
  4  5  1  0
  5  6  2  0
  6  7  1  0
  7  8  2  0
  3  8  1  0
  8  9  1  0
  9 10  2  0
 10 11  1  0
 11 12  2  0
 12 13  1  0
 13 14  2  0
 14 15  1  0
 15 16  1  0
 12 16  1  0
 16 17  2  0
  9 17  1  0
 13 18  1  0
 18 19  2  0
 19 20  1  0
 20 21  2  0
 21 22  1  0
 22 23  2  0
 23 24  1  0
 24 25  2  0
 20 25  1  0
 25 26  1  0
 18 26  1  0
 21 27  1  0
 27 28  1  0
 28 29  1  0
 29 30  1  0
 30 31  1  0
 30 32  1  0
 32 33  1  0
 27 33  1  0
M  END
>  <pIC50>  (393) 
5.00

>  <chembl_id>  (393) 
CHEMBL516244

>  <canonical_smiles>  (393) 
COc1ccccc1c2ccc3c(n[nH]c3c2)c4nc5c(cccc5[nH]4)N6CCN(C)CC6

$$$$
CHEMBL517154
     RDKit          2D

 28 32  0  0  0  0  0  0  0  0999 V2000
    5.9136    3.4780    0.0000 C   0  0  0  0  0  0  0  0  0  0  0  0
    6.7206    3.3064    0.0000 C   0  0  0  0  0  0  0  0  0  0  0  0
    7.2726    3.9195    0.0000 C   0  0  0  0  0  0  0  0  0  0  0  0
    8.0796    3.7480    0.0000 C   0  0  0  0  0  0  0  0  0  0  0  0
    8.3345    2.9634    0.0000 C   0  0  0  0  0  0  0  0  0  0  0  0
    7.7825    2.3503    0.0000 C   0  0  0  0  0  0  0  0  0  0  0  0
    6.9755    2.5218    0.0000 C   0  0  0  0  0  0  0  0  0  0  0  0
    6.4235    1.9087    0.0000 C   0  0  0  0  0  0  0  0  0  0  0  0
    6.6784    1.1241    0.0000 C   0  0  0  0  0  0  0  0  0  0  0  0
    6.1264    0.5110    0.0000 C   0  0  0  0  0  0  0  0  0  0  0  0
    5.3194    0.6825    0.0000 C   0  0  0  0  0  0  0  0  0  0  0  0
    5.0645    1.4672    0.0000 C   0  0  0  0  0  0  0  0  0  0  0  0
    5.6165    2.0803    0.0000 C   0  0  0  0  0  0  0  0  0  0  0  0
    4.7674    0.0694    0.0000 C   0  0  0  0  0  0  0  0  0  0  0  0
    5.0223   -0.7152    0.0000 O   0  0  0  0  0  0  0  0  0  0  0  0
    3.9604    0.2410    0.0000 N   0  0  0  0  0  0  0  0  0  0  0  0
    3.7054    1.0256    0.0000 C   0  0  0  0  0  0  0  0  0  0  0  0
    2.8985    1.1971    0.0000 C   0  0  0  0  0  0  0  0  0  0  0  0
    2.3464    0.5840    0.0000 C   0  0  0  0  0  0  0  0  0  0  0  0
    2.6014   -0.2006    0.0000 C   0  0  0  0  0  0  0  0  0  0  0  0
    3.4084   -0.3721    0.0000 C   0  0  0  0  0  0  0  0  0  0  0  0
    1.9339   -0.6855    0.0000 N   0  0  0  0  0  0  0  0  0  0  0  0
    1.2665   -0.2006    0.0000 C   0  0  0  0  0  0  0  0  0  0  0  0
    0.4595   -0.3721    0.0000 C   0  0  0  0  0  0  0  0  0  0  0  0
   -0.0925    0.2410    0.0000 C   0  0  0  0  0  0  0  0  0  0  0  0
    0.1624    1.0256    0.0000 C   0  0  0  0  0  0  0  0  0  0  0  0
    0.9694    1.1971    0.0000 C   0  0  0  0  0  0  0  0  0  0  0  0
    1.5214    0.5840    0.0000 C   0  0  0  0  0  0  0  0  0  0  0  0
  1  2  1  0
  2  3  2  0
  3  4  1  0
  4  5  2  0
  5  6  1  0
  6  7  2  0
  2  7  1  0
  7  8  1  0
  8  9  2  0
  9 10  1  0
 10 11  2  0
 11 12  1  0
 12 13  2  0
  8 13  1  0
 11 14  1  0
 14 15  2  0
 14 16  1  0
 16 17  1  0
 17 18  1  0
 18 19  1  0
 19 20  2  0
 20 21  1  0
 16 21  1  0
 20 22  1  0
 22 23  1  0
 23 24  2  0
 24 25  1  0
 25 26  2  0
 26 27  1  0
 27 28  2  0
 19 28  1  0
 23 28  1  0
M  END
>  <pIC50>  (394) 
3.47

>  <chembl_id>  (394) 
CHEMBL517154

>  <canonical_smiles>  (394) 
Cc1ccccc1c2ccc(cc2)C(=O)N3CCc4c(C3)[nH]c5ccccc45

$$$$
CHEMBL519795
     RDKit          2D

 33 38  0  0  0  0  0  0  0  0999 V2000
    4.1938   -5.3116    0.0000 C   0  0  0  0  0  0  0  0  0  0  0  0
    3.4092   -5.0567    0.0000 N   0  0  0  0  0  0  0  0  0  0  0  0
    2.7961   -5.6087    0.0000 C   0  0  0  0  0  0  0  0  0  0  0  0
    2.0115   -5.3538    0.0000 C   0  0  0  0  0  0  0  0  0  0  0  0
    1.8399   -4.5468    0.0000 N   0  0  0  0  0  0  0  0  0  0  0  0
    2.4530   -3.9948    0.0000 C   0  0  0  0  0  0  0  0  0  0  0  0
    3.2376   -4.2497    0.0000 C   0  0  0  0  0  0  0  0  0  0  0  0
    1.0553   -4.2919    0.0000 C   0  0  0  0  0  0  0  0  0  0  0  0
    0.4422   -4.8439    0.0000 C   0  0  0  0  0  0  0  0  0  0  0  0
   -0.3424   -4.5889    0.0000 C   0  0  0  0  0  0  0  0  0  0  0  0
   -0.5139   -3.7820    0.0000 C   0  0  0  0  0  0  0  0  0  0  0  0
    0.0992   -3.2299    0.0000 C   0  0  0  0  0  0  0  0  0  0  0  0
    0.0992   -2.4049    0.0000 N   0  0  0  0  0  0  0  0  0  0  0  0
    0.8838   -2.1500    0.0000 C   0  0  0  0  0  0  0  0  0  0  0  0
    1.3687   -2.8174    0.0000 N   0  0  0  0  0  0  0  0  0  0  0  0
    0.8838   -3.4849    0.0000 C   0  0  0  0  0  0  0  0  0  0  0  0
    1.1387   -1.3654    0.0000 C   0  0  0  0  0  0  0  0  0  0  0  0
    0.6538   -0.6979    0.0000 N   0  0  0  0  0  0  0  0  0  0  0  0
    1.1387   -0.0305    0.0000 N   0  0  0  0  0  0  0  0  0  0  0  0
    1.9233   -0.2854    0.0000 C   0  0  0  0  0  0  0  0  0  0  0  0
    2.6378    0.1271    0.0000 C   0  0  0  0  0  0  0  0  0  0  0  0
    3.3523   -0.2854    0.0000 C   0  0  0  0  0  0  0  0  0  0  0  0
    3.3523   -1.1104    0.0000 C   0  0  0  0  0  0  0  0  0  0  0  0
    2.6378   -1.5229    0.0000 C   0  0  0  0  0  0  0  0  0  0  0  0
    1.9233   -1.1104    0.0000 C   0  0  0  0  0  0  0  0  0  0  0  0
    4.0668    0.1271    0.0000 C   0  0  0  0  0  0  0  0  0  0  0  0
    4.0668    0.9521    0.0000 C   0  0  0  0  0  0  0  0  0  0  0  0
    4.7812    1.3646    0.0000 C   0  0  0  0  0  0  0  0  0  0  0  0
    5.4957    0.9521    0.0000 C   0  0  0  0  0  0  0  0  0  0  0  0
    6.2102    1.3646    0.0000 N   0  0  0  0  0  0  0  0  0  0  0  0
    5.4957    0.1271    0.0000 C   0  0  0  0  0  0  0  0  0  0  0  0
    6.2102   -0.2854    0.0000 F   0  0  0  0  0  0  0  0  0  0  0  0
    4.7812   -0.2854    0.0000 C   0  0  0  0  0  0  0  0  0  0  0  0
  1  2  1  0
  2  3  1  0
  3  4  1  0
  4  5  1  0
  5  6  1  0
  6  7  1  0
  2  7  1  0
  5  8  1  0
  8  9  2  0
  9 10  1  0
 10 11  2  0
 11 12  1  0
 12 13  1  0
 13 14  1  0
 14 15  2  0
 15 16  1  0
  8 16  1  0
 12 16  2  0
 14 17  1  0
 17 18  2  0
 18 19  1  0
 19 20  1  0
 20 21  2  0
 21 22  1  0
 22 23  2  0
 23 24  1  0
 24 25  2  0
 17 25  1  0
 20 25  1  0
 22 26  1  0
 26 27  2  0
 27 28  1  0
 28 29  2  0
 29 30  1  0
 29 31  1  0
 31 32  1  0
 31 33  2  0
 26 33  1  0
M  END
>  <pIC50>  (395) 
5.76

>  <chembl_id>  (395) 
CHEMBL519795

>  <canonical_smiles>  (395) 
CN1CCN(CC1)c2cccc3[nH]c(nc23)c4n[nH]c5cc(ccc45)c6ccc(N)c(F)c6

$$$$
CHEMBL520911
     RDKit          2D

 34 40  0  0  0  0  0  0  0  0999 V2000
    3.2252    7.3741    0.0000 C   0  0  0  0  0  0  0  0  0  0  0  0
    4.0099    7.1192    0.0000 N   0  0  0  0  0  0  0  0  0  0  0  0
    4.6230    7.6712    0.0000 C   0  0  0  0  0  0  0  0  0  0  0  0
    5.4076    7.4163    0.0000 C   0  0  0  0  0  0  0  0  0  0  0  0
    5.5791    6.6093    0.0000 N   0  0  0  0  0  0  0  0  0  0  0  0
    4.9660    6.0573    0.0000 C   0  0  0  0  0  0  0  0  0  0  0  0
    4.1814    6.3122    0.0000 C   0  0  0  0  0  0  0  0  0  0  0  0
    6.3637    6.3544    0.0000 C   0  0  0  0  0  0  0  0  0  0  0  0
    6.9768    6.9064    0.0000 C   0  0  0  0  0  0  0  0  0  0  0  0
    7.7614    6.6514    0.0000 C   0  0  0  0  0  0  0  0  0  0  0  0
    7.9330    5.8445    0.0000 C   0  0  0  0  0  0  0  0  0  0  0  0
    7.3199    5.2924    0.0000 C   0  0  0  0  0  0  0  0  0  0  0  0
    7.3199    4.4674    0.0000 N   0  0  0  0  0  0  0  0  0  0  0  0
    6.5353    4.2125    0.0000 C   0  0  0  0  0  0  0  0  0  0  0  0
    6.0503    4.8799    0.0000 N   0  0  0  0  0  0  0  0  0  0  0  0
    6.5353    5.5474    0.0000 C   0  0  0  0  0  0  0  0  0  0  0  0
    6.2803    3.4279    0.0000 C   0  0  0  0  0  0  0  0  0  0  0  0
    6.7652    2.7604    0.0000 N   0  0  0  0  0  0  0  0  0  0  0  0
    6.2803    2.0930    0.0000 N   0  0  0  0  0  0  0  0  0  0  0  0
    5.4957    2.3479    0.0000 C   0  0  0  0  0  0  0  0  0  0  0  0
    4.7812    1.9354    0.0000 C   0  0  0  0  0  0  0  0  0  0  0  0
    4.0668    2.3479    0.0000 C   0  0  0  0  0  0  0  0  0  0  0  0
    4.0668    3.1729    0.0000 C   0  0  0  0  0  0  0  0  0  0  0  0
    4.7812    3.5854    0.0000 C   0  0  0  0  0  0  0  0  0  0  0  0
    5.4957    3.1729    0.0000 C   0  0  0  0  0  0  0  0  0  0  0  0
    3.3523    1.9354    0.0000 C   0  0  0  0  0  0  0  0  0  0  0  0
    3.3523    1.1104    0.0000 C   0  0  0  0  0  0  0  0  0  0  0  0
    2.6378    0.6979    0.0000 C   0  0  0  0  0  0  0  0  0  0  0  0
    1.9233    1.1104    0.0000 C   0  0  0  0  0  0  0  0  0  0  0  0
    1.1387    0.8555    0.0000 N   0  0  0  0  0  0  0  0  0  0  0  0
    0.6538    1.5229    0.0000 C   0  0  0  0  0  0  0  0  0  0  0  0
    1.1387    2.1904    0.0000 C   0  0  0  0  0  0  0  0  0  0  0  0
    1.9233    1.9354    0.0000 C   0  0  0  0  0  0  0  0  0  0  0  0
    2.6378    2.3479    0.0000 C   0  0  0  0  0  0  0  0  0  0  0  0
  1  2  1  0
  2  3  1  0
  3  4  1  0
  4  5  1  0
  5  6  1  0
  6  7  1  0
  2  7  1  0
  5  8  1  0
  8  9  2  0
  9 10  1  0
 10 11  2  0
 11 12  1  0
 12 13  1  0
 13 14  1  0
 14 15  2  0
 15 16  1  0
  8 16  1  0
 12 16  2  0
 14 17  1  0
 17 18  2  0
 18 19  1  0
 19 20  1  0
 20 21  2  0
 21 22  1  0
 22 23  2  0
 23 24  1  0
 24 25  2  0
 17 25  1  0
 20 25  1  0
 22 26  1  0
 26 27  2  0
 27 28  1  0
 28 29  2  0
 29 30  1  0
 30 31  1  0
 31 32  2  0
 32 33  1  0
 29 33  1  0
 33 34  2  0
 26 34  1  0
M  END
>  <pIC50>  (396) 
5.00

>  <chembl_id>  (396) 
CHEMBL520911

>  <canonical_smiles>  (396) 
CN1CCN(CC1)c2cccc3[nH]c(nc23)c4n[nH]c5cc(ccc45)c6ccc7[nH]ccc7c6

$$$$
CHEMBL521733
     RDKit          2D

 26 29  0  0  0  0  0  0  0  0999 V2000
    2.5399   -3.9893    0.0000 O   0  0  0  0  0  0  0  0  0  0  0  0
    1.7329   -4.1608    0.0000 C   0  0  0  0  0  0  0  0  0  0  0  0
    1.1809   -3.5477    0.0000 N   0  0  0  0  0  0  0  0  0  0  0  0
    1.4358   -2.7631    0.0000 C   0  0  0  0  0  0  0  0  0  0  0  0
    0.8838   -2.1500    0.0000 C   0  0  0  0  0  0  0  0  0  0  0  0
    1.1387   -1.3654    0.0000 C   0  0  0  0  0  0  0  0  0  0  0  0
    0.6538   -0.6979    0.0000 C   0  0  0  0  0  0  0  0  0  0  0  0
    1.1387   -0.0305    0.0000 N   0  0  0  0  0  0  0  0  0  0  0  0
    1.9233   -0.2854    0.0000 C   0  0  0  0  0  0  0  0  0  0  0  0
    2.6378    0.1271    0.0000 C   0  0  0  0  0  0  0  0  0  0  0  0
    3.3523   -0.2854    0.0000 C   0  0  0  0  0  0  0  0  0  0  0  0
    3.3523   -1.1104    0.0000 C   0  0  0  0  0  0  0  0  0  0  0  0
    2.6378   -1.5229    0.0000 C   0  0  0  0  0  0  0  0  0  0  0  0
    1.9233   -1.1104    0.0000 C   0  0  0  0  0  0  0  0  0  0  0  0
    1.4780   -4.9454    0.0000 C   0  0  0  0  0  0  0  0  0  0  0  0
    2.0300   -5.5585    0.0000 C   0  0  0  0  0  0  0  0  0  0  0  0
    1.7751   -6.3432    0.0000 C   0  0  0  0  0  0  0  0  0  0  0  0
    0.9681   -6.5147    0.0000 C   0  0  0  0  0  0  0  0  0  0  0  0
    0.4161   -5.9016    0.0000 C   0  0  0  0  0  0  0  0  0  0  0  0
    0.6710   -5.1170    0.0000 C   0  0  0  0  0  0  0  0  0  0  0  0
    0.7132   -7.2993    0.0000 C   0  0  0  0  0  0  0  0  0  0  0  0
    1.2652   -7.9124    0.0000 C   0  0  0  0  0  0  0  0  0  0  0  0
    1.0102   -8.6970    0.0000 C   0  0  0  0  0  0  0  0  0  0  0  0
    0.2033   -8.8685    0.0000 C   0  0  0  0  0  0  0  0  0  0  0  0
   -0.3488   -8.2554    0.0000 C   0  0  0  0  0  0  0  0  0  0  0  0
   -0.0938   -7.4708    0.0000 C   0  0  0  0  0  0  0  0  0  0  0  0
  1  2  2  0
  2  3  1  0
  3  4  1  0
  4  5  1  0
  5  6  1  0
  6  7  2  0
  7  8  1  0
  8  9  1  0
  9 10  2  0
 10 11  1  0
 11 12  2  0
 12 13  1  0
 13 14  2  0
  6 14  1  0
  9 14  1  0
  2 15  1  0
 15 16  2  0
 16 17  1  0
 17 18  2  0
 18 19  1  0
 19 20  2  0
 15 20  1  0
 18 21  1  0
 21 22  2  0
 22 23  1  0
 23 24  2  0
 24 25  1  0
 25 26  2  0
 21 26  1  0
M  END
>  <pIC50>  (397) 
3.07

>  <chembl_id>  (397) 
CHEMBL521733

>  <canonical_smiles>  (397) 
O=C(NCCc1c[nH]c2ccccc12)c3ccc(cc3)c4ccccc4

$$$$
CHEMBL521871
     RDKit          2D

 36 40  0  0  0  0  0  0  0  0999 V2000
    1.8594  -10.7078    0.0000 C   0  0  0  0  0  0  0  0  0  0  0  0
    1.3073  -10.0947    0.0000 N   0  0  0  0  0  0  0  0  0  0  0  0
    0.5004  -10.2663    0.0000 C   0  0  0  0  0  0  0  0  0  0  0  0
    1.5623   -9.3101    0.0000 C   0  0  0  0  0  0  0  0  0  0  0  0
    1.0102   -8.6970    0.0000 C   0  0  0  0  0  0  0  0  0  0  0  0
    0.2033   -8.8685    0.0000 O   0  0  0  0  0  0  0  0  0  0  0  0
    1.2652   -7.9124    0.0000 C   0  0  0  0  0  0  0  0  0  0  0  0
    0.7132   -7.2993    0.0000 O   0  0  0  0  0  0  0  0  0  0  0  0
    0.9681   -6.5147    0.0000 C   0  0  0  0  0  0  0  0  0  0  0  0
    0.4161   -5.9016    0.0000 C   0  0  0  0  0  0  0  0  0  0  0  0
    0.6710   -5.1170    0.0000 C   0  0  0  0  0  0  0  0  0  0  0  0
    1.4780   -4.9454    0.0000 C   0  0  0  0  0  0  0  0  0  0  0  0
    1.7329   -4.1608    0.0000 N   0  0  0  0  0  0  0  0  0  0  0  0
    1.1809   -3.5477    0.0000 C   0  0  0  0  0  0  0  0  0  0  0  0
    0.3739   -3.7192    0.0000 N   0  0  0  0  0  0  0  0  0  0  0  0
   -0.1781   -3.1062    0.0000 C   0  0  0  0  0  0  0  0  0  0  0  0
    0.0768   -2.3215    0.0000 C   0  0  0  0  0  0  0  0  0  0  0  0
    0.8838   -2.1500    0.0000 C   0  0  0  0  0  0  0  0  0  0  0  0
    1.4358   -2.7631    0.0000 N   0  0  0  0  0  0  0  0  0  0  0  0
    1.1387   -1.3654    0.0000 C   0  0  0  0  0  0  0  0  0  0  0  0
    0.6538   -0.6979    0.0000 C   0  0  0  0  0  0  0  0  0  0  0  0
    1.1387   -0.0305    0.0000 N   0  0  0  0  0  0  0  0  0  0  0  0
    1.9233   -0.2854    0.0000 N   0  0  0  0  0  0  0  0  0  0  0  0
    2.6378    0.1271    0.0000 N   0  0  0  0  0  0  0  0  0  0  0  0
    3.3523   -0.2854    0.0000 C   0  0  0  0  0  0  0  0  0  0  0  0
    3.3523   -1.1104    0.0000 C   0  0  0  0  0  0  0  0  0  0  0  0
    2.6378   -1.5229    0.0000 C   0  0  0  0  0  0  0  0  0  0  0  0
    1.9233   -1.1104    0.0000 C   0  0  0  0  0  0  0  0  0  0  0  0
    4.0668    0.1271    0.0000 N   0  0  0  0  0  0  0  0  0  0  0  0
    4.0668    0.9521    0.0000 C   0  0  0  0  0  0  0  0  0  0  0  0
    4.7812    1.3646    0.0000 C   0  0  0  0  0  0  0  0  0  0  0  0
    5.4957    0.9521    0.0000 O   0  0  0  0  0  0  0  0  0  0  0  0
    5.4957    0.1271    0.0000 C   0  0  0  0  0  0  0  0  0  0  0  0
    4.7812   -0.2854    0.0000 C   0  0  0  0  0  0  0  0  0  0  0  0
    2.0300   -5.5585    0.0000 C   0  0  0  0  0  0  0  0  0  0  0  0
    1.7751   -6.3432    0.0000 C   0  0  0  0  0  0  0  0  0  0  0  0
  1  2  1  0
  2  3  1  0
  2  4  1  0
  4  5  1  0
  5  6  1  0
  5  7  1  0
  7  8  1  0
  8  9  1  0
  9 10  2  0
 10 11  1  0
 11 12  2  0
 12 13  1  0
 13 14  1  0
 14 15  2  0
 15 16  1  0
 16 17  2  0
 17 18  1  0
 18 19  2  0
 14 19  1  0
 18 20  1  0
 20 21  1  0
 21 22  2  0
 22 23  1  0
 23 24  1  0
 24 25  2  0
 25 26  1  0
 26 27  2  0
 27 28  1  0
 20 28  2  0
 23 28  1  0
 25 29  1  0
 29 30  1  0
 30 31  1  0
 31 32  1  0
 32 33  1  0
 33 34  1  0
 29 34  1  0
 12 35  1  0
 35 36  2  0
  9 36  1  0
M  END
>  <pIC50>  (398) 
6.35

>  <chembl_id>  (398) 
CHEMBL521871

>  <canonical_smiles>  (398) 
CN(C)CC(O)COc1ccc(Nc2nccc(n2)c3cnn4nc(ccc34)N5CCOCC5)cc1

$$$$
CHEMBL523735
     RDKit          2D

 25 28  0  0  0  0  0  0  0  0999 V2000
    1.2652   -7.9124    0.0000 N   0  0  0  0  0  0  0  0  0  0  0  0
    0.7132   -7.2993    0.0000 C   0  0  0  0  0  0  0  0  0  0  0  0
   -0.0938   -7.4708    0.0000 O   0  0  0  0  0  0  0  0  0  0  0  0
    0.9681   -6.5147    0.0000 C   0  0  0  0  0  0  0  0  0  0  0  0
    0.4161   -5.9016    0.0000 C   0  0  0  0  0  0  0  0  0  0  0  0
    0.6710   -5.1170    0.0000 C   0  0  0  0  0  0  0  0  0  0  0  0
    1.4780   -4.9454    0.0000 C   0  0  0  0  0  0  0  0  0  0  0  0
    1.7329   -4.1608    0.0000 N   0  0  0  0  0  0  0  0  0  0  0  0
    1.1809   -3.5477    0.0000 C   0  0  0  0  0  0  0  0  0  0  0  0
    0.3739   -3.7192    0.0000 N   0  0  0  0  0  0  0  0  0  0  0  0
   -0.1781   -3.1062    0.0000 C   0  0  0  0  0  0  0  0  0  0  0  0
    0.0768   -2.3215    0.0000 C   0  0  0  0  0  0  0  0  0  0  0  0
    0.8838   -2.1500    0.0000 C   0  0  0  0  0  0  0  0  0  0  0  0
    1.4358   -2.7631    0.0000 N   0  0  0  0  0  0  0  0  0  0  0  0
    1.1387   -1.3654    0.0000 C   0  0  0  0  0  0  0  0  0  0  0  0
    0.6538   -0.6979    0.0000 C   0  0  0  0  0  0  0  0  0  0  0  0
    1.1387   -0.0305    0.0000 N   0  0  0  0  0  0  0  0  0  0  0  0
    1.9233   -0.2854    0.0000 N   0  0  0  0  0  0  0  0  0  0  0  0
    2.6378    0.1271    0.0000 N   0  0  0  0  0  0  0  0  0  0  0  0
    3.3523   -0.2854    0.0000 C   0  0  0  0  0  0  0  0  0  0  0  0
    3.3523   -1.1104    0.0000 C   0  0  0  0  0  0  0  0  0  0  0  0
    2.6378   -1.5229    0.0000 C   0  0  0  0  0  0  0  0  0  0  0  0
    1.9233   -1.1104    0.0000 C   0  0  0  0  0  0  0  0  0  0  0  0
    2.0300   -5.5585    0.0000 C   0  0  0  0  0  0  0  0  0  0  0  0
    1.7751   -6.3432    0.0000 C   0  0  0  0  0  0  0  0  0  0  0  0
  1  2  1  0
  2  3  2  0
  2  4  1  0
  4  5  2  0
  5  6  1  0
  6  7  2  0
  7  8  1  0
  8  9  1  0
  9 10  2  0
 10 11  1  0
 11 12  2  0
 12 13  1  0
 13 14  2  0
  9 14  1  0
 13 15  1  0
 15 16  1  0
 16 17  2  0
 17 18  1  0
 18 19  1  0
 19 20  2  0
 20 21  1  0
 21 22  2  0
 22 23  1  0
 15 23  2  0
 18 23  1  0
  7 24  1  0
 24 25  2  0
  4 25  1  0
M  END
>  <pIC50>  (399) 
7.80

>  <chembl_id>  (399) 
CHEMBL523735

>  <canonical_smiles>  (399) 
NC(=O)c1ccc(Nc2nccc(n2)c3cnn4ncccc34)cc1

$$$$
CHEMBL524059
     RDKit          2D

 25 28  0  0  0  0  0  0  0  0999 V2000
    1.2652   -7.9124    0.0000 O   0  0  0  0  0  0  0  0  0  0  0  0
    0.7132   -7.2993    0.0000 C   0  0  0  0  0  0  0  0  0  0  0  0
   -0.0938   -7.4708    0.0000 O   0  0  0  0  0  0  0  0  0  0  0  0
    0.9681   -6.5147    0.0000 C   0  0  0  0  0  0  0  0  0  0  0  0
    0.4161   -5.9016    0.0000 C   0  0  0  0  0  0  0  0  0  0  0  0
    0.6710   -5.1170    0.0000 C   0  0  0  0  0  0  0  0  0  0  0  0
    1.4780   -4.9454    0.0000 C   0  0  0  0  0  0  0  0  0  0  0  0
    1.7329   -4.1608    0.0000 N   0  0  0  0  0  0  0  0  0  0  0  0
    1.1809   -3.5477    0.0000 C   0  0  0  0  0  0  0  0  0  0  0  0
    0.3739   -3.7192    0.0000 N   0  0  0  0  0  0  0  0  0  0  0  0
   -0.1781   -3.1062    0.0000 C   0  0  0  0  0  0  0  0  0  0  0  0
    0.0768   -2.3215    0.0000 C   0  0  0  0  0  0  0  0  0  0  0  0
    0.8838   -2.1500    0.0000 C   0  0  0  0  0  0  0  0  0  0  0  0
    1.4358   -2.7631    0.0000 N   0  0  0  0  0  0  0  0  0  0  0  0
    1.1387   -1.3654    0.0000 C   0  0  0  0  0  0  0  0  0  0  0  0
    0.6538   -0.6979    0.0000 C   0  0  0  0  0  0  0  0  0  0  0  0
    1.1387   -0.0305    0.0000 N   0  0  0  0  0  0  0  0  0  0  0  0
    1.9233   -0.2854    0.0000 N   0  0  0  0  0  0  0  0  0  0  0  0
    2.6378    0.1271    0.0000 N   0  0  0  0  0  0  0  0  0  0  0  0
    3.3523   -0.2854    0.0000 C   0  0  0  0  0  0  0  0  0  0  0  0
    3.3523   -1.1104    0.0000 C   0  0  0  0  0  0  0  0  0  0  0  0
    2.6378   -1.5229    0.0000 C   0  0  0  0  0  0  0  0  0  0  0  0
    1.9233   -1.1104    0.0000 C   0  0  0  0  0  0  0  0  0  0  0  0
    2.0300   -5.5585    0.0000 C   0  0  0  0  0  0  0  0  0  0  0  0
    1.7751   -6.3432    0.0000 C   0  0  0  0  0  0  0  0  0  0  0  0
  1  2  1  0
  2  3  2  0
  2  4  1  0
  4  5  2  0
  5  6  1  0
  6  7  2  0
  7  8  1  0
  8  9  1  0
  9 10  2  0
 10 11  1  0
 11 12  2  0
 12 13  1  0
 13 14  2  0
  9 14  1  0
 13 15  1  0
 15 16  1  0
 16 17  2  0
 17 18  1  0
 18 19  1  0
 19 20  2  0
 20 21  1  0
 21 22  2  0
 22 23  1  0
 15 23  2  0
 18 23  1  0
  7 24  1  0
 24 25  2  0
  4 25  1  0
M  END
>  <pIC50>  (400) 
7.40

>  <chembl_id>  (400) 
CHEMBL524059

>  <canonical_smiles>  (400) 
OC(=O)c1ccc(Nc2nccc(n2)c3cnn4ncccc34)cc1

$$$$
CHEMBL525194
     RDKit          2D

 19 22  0  0  0  0  0  0  0  0999 V2000
    1.6495   -5.7524    0.0000 C   0  0  0  0  0  0  0  0  0  0  0  0
    0.8649   -5.4975    0.0000 C   0  0  0  0  0  0  0  0  0  0  0  0
    1.4780   -4.9454    0.0000 C   0  0  0  0  0  0  0  0  0  0  0  0
    1.7329   -4.1608    0.0000 N   0  0  0  0  0  0  0  0  0  0  0  0
    1.1809   -3.5477    0.0000 C   0  0  0  0  0  0  0  0  0  0  0  0
    0.3739   -3.7192    0.0000 N   0  0  0  0  0  0  0  0  0  0  0  0
   -0.1781   -3.1062    0.0000 C   0  0  0  0  0  0  0  0  0  0  0  0
    0.0768   -2.3215    0.0000 C   0  0  0  0  0  0  0  0  0  0  0  0
    0.8838   -2.1500    0.0000 C   0  0  0  0  0  0  0  0  0  0  0  0
    1.4358   -2.7631    0.0000 N   0  0  0  0  0  0  0  0  0  0  0  0
    1.1387   -1.3654    0.0000 C   0  0  0  0  0  0  0  0  0  0  0  0
    0.6538   -0.6979    0.0000 C   0  0  0  0  0  0  0  0  0  0  0  0
    1.1387   -0.0305    0.0000 N   0  0  0  0  0  0  0  0  0  0  0  0
    1.9233   -0.2854    0.0000 N   0  0  0  0  0  0  0  0  0  0  0  0
    2.6378    0.1271    0.0000 N   0  0  0  0  0  0  0  0  0  0  0  0
    3.3523   -0.2854    0.0000 C   0  0  0  0  0  0  0  0  0  0  0  0
    3.3523   -1.1104    0.0000 C   0  0  0  0  0  0  0  0  0  0  0  0
    2.6378   -1.5229    0.0000 C   0  0  0  0  0  0  0  0  0  0  0  0
    1.9233   -1.1104    0.0000 C   0  0  0  0  0  0  0  0  0  0  0  0
  1  2  1  0
  2  3  1  0
  1  3  1  0
  3  4  1  0
  4  5  1  0
  5  6  2  0
  6  7  1  0
  7  8  2  0
  8  9  1  0
  9 10  2  0
  5 10  1  0
  9 11  1  0
 11 12  1  0
 12 13  2  0
 13 14  1  0
 14 15  1  0
 15 16  2  0
 16 17  1  0
 17 18  2  0
 18 19  1  0
 11 19  2  0
 14 19  1  0
M  END
>  <pIC50>  (401) 
6.92

>  <chembl_id>  (401) 
CHEMBL525194

>  <canonical_smiles>  (401) 
C1CC1Nc2nccc(n2)c3cnn4ncccc34

$$$$
CHEMBL525530
     RDKit          2D

 30 33  0  0  0  0  0  0  0  0999 V2000
    3.3469   -3.8178    0.0000 C   0  0  0  0  0  0  0  0  0  0  0  0
    2.5399   -3.9893    0.0000 C   0  0  0  0  0  0  0  0  0  0  0  0
    2.3684   -3.1823    0.0000 C   0  0  0  0  0  0  0  0  0  0  0  0
    2.7114   -4.7963    0.0000 C   0  0  0  0  0  0  0  0  0  0  0  0
    1.7329   -4.1608    0.0000 C   0  0  0  0  0  0  0  0  0  0  0  0
    1.4780   -4.9454    0.0000 C   0  0  0  0  0  0  0  0  0  0  0  0
    0.6710   -5.1170    0.0000 C   0  0  0  0  0  0  0  0  0  0  0  0
    0.1190   -4.5039    0.0000 C   0  0  0  0  0  0  0  0  0  0  0  0
    0.3739   -3.7192    0.0000 C   0  0  0  0  0  0  0  0  0  0  0  0
    1.1809   -3.5477    0.0000 C   0  0  0  0  0  0  0  0  0  0  0  0
   -0.6880   -4.6754    0.0000 C   0  0  0  0  0  0  0  0  0  0  0  0
   -0.9429   -5.4600    0.0000 C   0  0  0  0  0  0  0  0  0  0  0  0
   -1.7499   -5.6315    0.0000 C   0  0  0  0  0  0  0  0  0  0  0  0
   -2.3020   -5.0184    0.0000 C   0  0  0  0  0  0  0  0  0  0  0  0
   -2.0470   -4.2338    0.0000 C   0  0  0  0  0  0  0  0  0  0  0  0
   -1.2400   -4.0623    0.0000 C   0  0  0  0  0  0  0  0  0  0  0  0
   -0.9851   -3.2777    0.0000 C   0  0  0  0  0  0  0  0  0  0  0  0
   -1.5371   -2.6646    0.0000 O   0  0  0  0  0  0  0  0  0  0  0  0
   -0.1781   -3.1062    0.0000 N   0  0  0  0  0  0  0  0  0  0  0  0
    0.0768   -2.3215    0.0000 C   0  0  0  0  0  0  0  0  0  0  0  0
    0.8838   -2.1500    0.0000 C   0  0  0  0  0  0  0  0  0  0  0  0
    1.1387   -1.3654    0.0000 C   0  0  0  0  0  0  0  0  0  0  0  0
    0.6538   -0.6979    0.0000 C   0  0  0  0  0  0  0  0  0  0  0  0
    1.1387   -0.0305    0.0000 N   0  0  0  0  0  0  0  0  0  0  0  0
    1.9233   -0.2854    0.0000 C   0  0  0  0  0  0  0  0  0  0  0  0
    2.6378    0.1271    0.0000 C   0  0  0  0  0  0  0  0  0  0  0  0
    3.3523   -0.2854    0.0000 C   0  0  0  0  0  0  0  0  0  0  0  0
    3.3523   -1.1104    0.0000 C   0  0  0  0  0  0  0  0  0  0  0  0
    2.6378   -1.5229    0.0000 C   0  0  0  0  0  0  0  0  0  0  0  0
    1.9233   -1.1104    0.0000 C   0  0  0  0  0  0  0  0  0  0  0  0
  1  2  1  0
  2  3  1  0
  2  4  1  0
  2  5  1  0
  5  6  2  0
  6  7  1  0
  7  8  2  0
  8  9  1  0
  9 10  2  0
  5 10  1  0
  8 11  1  0
 11 12  2  0
 12 13  1  0
 13 14  2  0
 14 15  1  0
 15 16  2  0
 11 16  1  0
 16 17  1  0
 17 18  2  0
 17 19  1  0
 19 20  1  0
 20 21  1  0
 21 22  1  0
 22 23  2  0
 23 24  1  0
 24 25  1  0
 25 26  2  0
 26 27  1  0
 27 28  2  0
 28 29  1  0
 29 30  2  0
 22 30  1  0
 25 30  1  0
M  END
>  <pIC50>  (402) 
3.58

>  <chembl_id>  (402) 
CHEMBL525530

>  <canonical_smiles>  (402) 
CC(C)(C)c1ccc(cc1)c2ccccc2C(=O)NCCc3c[nH]c4ccccc34

$$$$
CHEMBL525538
     RDKit          2D

 29 32  0  0  0  0  0  0  0  0999 V2000
   -2.2176   -9.3831    0.0000 C   0  0  0  0  0  0  0  0  0  0  0  0
   -2.7697   -8.7700    0.0000 O   0  0  0  0  0  0  0  0  0  0  0  0
   -2.5147   -7.9854    0.0000 C   0  0  0  0  0  0  0  0  0  0  0  0
   -3.0668   -7.3723    0.0000 C   0  0  0  0  0  0  0  0  0  0  0  0
   -2.8118   -6.5877    0.0000 C   0  0  0  0  0  0  0  0  0  0  0  0
   -2.0049   -6.4162    0.0000 C   0  0  0  0  0  0  0  0  0  0  0  0
   -1.4528   -7.0293    0.0000 C   0  0  0  0  0  0  0  0  0  0  0  0
   -1.7078   -7.8139    0.0000 C   0  0  0  0  0  0  0  0  0  0  0  0
   -1.7499   -5.6315    0.0000 C   0  0  0  0  0  0  0  0  0  0  0  0
   -2.3020   -5.0184    0.0000 C   0  0  0  0  0  0  0  0  0  0  0  0
   -2.0470   -4.2338    0.0000 C   0  0  0  0  0  0  0  0  0  0  0  0
   -1.2400   -4.0623    0.0000 C   0  0  0  0  0  0  0  0  0  0  0  0
   -0.6880   -4.6754    0.0000 C   0  0  0  0  0  0  0  0  0  0  0  0
   -0.9429   -5.4600    0.0000 C   0  0  0  0  0  0  0  0  0  0  0  0
   -0.9851   -3.2777    0.0000 C   0  0  0  0  0  0  0  0  0  0  0  0
   -1.5371   -2.6646    0.0000 O   0  0  0  0  0  0  0  0  0  0  0  0
   -0.1781   -3.1062    0.0000 N   0  0  0  0  0  0  0  0  0  0  0  0
    0.3739   -3.7192    0.0000 C   0  0  0  0  0  0  0  0  0  0  0  0
    0.0768   -2.3215    0.0000 C   0  0  0  0  0  0  0  0  0  0  0  0
    0.8838   -2.1500    0.0000 C   0  0  0  0  0  0  0  0  0  0  0  0
    1.1387   -1.3654    0.0000 C   0  0  0  0  0  0  0  0  0  0  0  0
    0.6538   -0.6979    0.0000 C   0  0  0  0  0  0  0  0  0  0  0  0
    1.1387   -0.0305    0.0000 N   0  0  0  0  0  0  0  0  0  0  0  0
    1.9233   -0.2854    0.0000 C   0  0  0  0  0  0  0  0  0  0  0  0
    2.6378    0.1271    0.0000 C   0  0  0  0  0  0  0  0  0  0  0  0
    3.3523   -0.2854    0.0000 C   0  0  0  0  0  0  0  0  0  0  0  0
    3.3523   -1.1104    0.0000 C   0  0  0  0  0  0  0  0  0  0  0  0
    2.6378   -1.5229    0.0000 C   0  0  0  0  0  0  0  0  0  0  0  0
    1.9233   -1.1104    0.0000 C   0  0  0  0  0  0  0  0  0  0  0  0
  1  2  1  0
  2  3  1  0
  3  4  2  0
  4  5  1  0
  5  6  2  0
  6  7  1  0
  7  8  2  0
  3  8  1  0
  6  9  1  0
  9 10  2  0
 10 11  1  0
 11 12  2  0
 12 13  1  0
 13 14  2  0
  9 14  1  0
 12 15  1  0
 15 16  2  0
 15 17  1  0
 17 18  1  0
 17 19  1  0
 19 20  1  0
 20 21  1  0
 21 22  2  0
 22 23  1  0
 23 24  1  0
 24 25  2  0
 25 26  1  0
 26 27  2  0
 27 28  1  0
 28 29  2  0
 21 29  1  0
 24 29  1  0
M  END
>  <pIC50>  (403) 
3.54

>  <chembl_id>  (403) 
CHEMBL525538

>  <canonical_smiles>  (403) 
COc1ccc(cc1)c2ccc(cc2)C(=O)N(C)CCc3c[nH]c4ccccc34

$$$$
CHEMBL525921
     RDKit          2D

 28 31  0  0  0  0  0  0  0  0999 V2000
    0.3739   -3.7192    0.0000 C   0  0  0  0  0  0  0  0  0  0  0  0
    1.1809   -3.5477    0.0000 N   0  0  0  0  0  0  0  0  0  0  0  0
    1.4358   -2.7631    0.0000 C   0  0  0  0  0  0  0  0  0  0  0  0
    0.8838   -2.1500    0.0000 C   0  0  0  0  0  0  0  0  0  0  0  0
    1.1387   -1.3654    0.0000 C   0  0  0  0  0  0  0  0  0  0  0  0
    0.6538   -0.6979    0.0000 C   0  0  0  0  0  0  0  0  0  0  0  0
    1.1387   -0.0305    0.0000 N   0  0  0  0  0  0  0  0  0  0  0  0
    1.9233   -0.2854    0.0000 C   0  0  0  0  0  0  0  0  0  0  0  0
    2.6378    0.1271    0.0000 C   0  0  0  0  0  0  0  0  0  0  0  0
    3.3523   -0.2854    0.0000 C   0  0  0  0  0  0  0  0  0  0  0  0
    3.3523   -1.1104    0.0000 C   0  0  0  0  0  0  0  0  0  0  0  0
    2.6378   -1.5229    0.0000 C   0  0  0  0  0  0  0  0  0  0  0  0
    1.9233   -1.1104    0.0000 C   0  0  0  0  0  0  0  0  0  0  0  0
    1.7329   -4.1608    0.0000 C   0  0  0  0  0  0  0  0  0  0  0  0
    2.5399   -3.9893    0.0000 O   0  0  0  0  0  0  0  0  0  0  0  0
    1.4780   -4.9454    0.0000 C   0  0  0  0  0  0  0  0  0  0  0  0
    2.0300   -5.5585    0.0000 C   0  0  0  0  0  0  0  0  0  0  0  0
    1.7751   -6.3432    0.0000 C   0  0  0  0  0  0  0  0  0  0  0  0
    0.9681   -6.5147    0.0000 C   0  0  0  0  0  0  0  0  0  0  0  0
    0.4161   -5.9016    0.0000 C   0  0  0  0  0  0  0  0  0  0  0  0
    0.6710   -5.1170    0.0000 C   0  0  0  0  0  0  0  0  0  0  0  0
    0.7132   -7.2993    0.0000 C   0  0  0  0  0  0  0  0  0  0  0  0
    1.2652   -7.9124    0.0000 C   0  0  0  0  0  0  0  0  0  0  0  0
    1.0102   -8.6970    0.0000 C   0  0  0  0  0  0  0  0  0  0  0  0
    0.2033   -8.8685    0.0000 C   0  0  0  0  0  0  0  0  0  0  0  0
   -0.0517   -9.6532    0.0000 C   0  0  0  0  0  0  0  0  0  0  0  0
   -0.3488   -8.2554    0.0000 C   0  0  0  0  0  0  0  0  0  0  0  0
   -0.0938   -7.4708    0.0000 C   0  0  0  0  0  0  0  0  0  0  0  0
  1  2  1  0
  2  3  1  0
  3  4  1  0
  4  5  1  0
  5  6  2  0
  6  7  1  0
  7  8  1  0
  8  9  2  0
  9 10  1  0
 10 11  2  0
 11 12  1  0
 12 13  2  0
  5 13  1  0
  8 13  1  0
  2 14  1  0
 14 15  2  0
 14 16  1  0
 16 17  2  0
 17 18  1  0
 18 19  2  0
 19 20  1  0
 20 21  2  0
 16 21  1  0
 19 22  1  0
 22 23  2  0
 23 24  1  0
 24 25  2  0
 25 26  1  0
 25 27  1  0
 27 28  2  0
 22 28  1  0
M  END
>  <pIC50>  (404) 
4.15

>  <chembl_id>  (404) 
CHEMBL525921

>  <canonical_smiles>  (404) 
CN(CCc1c[nH]c2ccccc12)C(=O)c3ccc(cc3)c4ccc(C)cc4

$$$$
CHEMBL526110
     RDKit          2D

 25 28  0  0  0  0  0  0  0  0999 V2000
    2.0722   -7.7409    0.0000 O   0  0  0  0  0  0  0  0  0  0  0  0
    2.3271   -6.9562    0.0000 N   0  0  0  0  0  0  0  0  0  0  0  0
    3.1341   -6.7847    0.0000 O   0  0  0  0  0  0  0  0  0  0  0  0
    1.7751   -6.3432    0.0000 C   0  0  0  0  0  0  0  0  0  0  0  0
    0.9681   -6.5147    0.0000 C   0  0  0  0  0  0  0  0  0  0  0  0
    0.4161   -5.9016    0.0000 C   0  0  0  0  0  0  0  0  0  0  0  0
    0.6710   -5.1170    0.0000 C   0  0  0  0  0  0  0  0  0  0  0  0
    1.4780   -4.9454    0.0000 C   0  0  0  0  0  0  0  0  0  0  0  0
    1.7329   -4.1608    0.0000 N   0  0  0  0  0  0  0  0  0  0  0  0
    1.1809   -3.5477    0.0000 C   0  0  0  0  0  0  0  0  0  0  0  0
    0.3739   -3.7192    0.0000 N   0  0  0  0  0  0  0  0  0  0  0  0
   -0.1781   -3.1062    0.0000 C   0  0  0  0  0  0  0  0  0  0  0  0
    0.0768   -2.3215    0.0000 C   0  0  0  0  0  0  0  0  0  0  0  0
    0.8838   -2.1500    0.0000 C   0  0  0  0  0  0  0  0  0  0  0  0
    1.4358   -2.7631    0.0000 N   0  0  0  0  0  0  0  0  0  0  0  0
    1.1387   -1.3654    0.0000 C   0  0  0  0  0  0  0  0  0  0  0  0
    0.6538   -0.6979    0.0000 C   0  0  0  0  0  0  0  0  0  0  0  0
    1.1387   -0.0305    0.0000 N   0  0  0  0  0  0  0  0  0  0  0  0
    1.9233   -0.2854    0.0000 N   0  0  0  0  0  0  0  0  0  0  0  0
    2.6378    0.1271    0.0000 N   0  0  0  0  0  0  0  0  0  0  0  0
    3.3523   -0.2854    0.0000 C   0  0  0  0  0  0  0  0  0  0  0  0
    3.3523   -1.1104    0.0000 C   0  0  0  0  0  0  0  0  0  0  0  0
    2.6378   -1.5229    0.0000 C   0  0  0  0  0  0  0  0  0  0  0  0
    1.9233   -1.1104    0.0000 C   0  0  0  0  0  0  0  0  0  0  0  0
    2.0300   -5.5585    0.0000 C   0  0  0  0  0  0  0  0  0  0  0  0
  1  2  1  0
  2  3  2  0
  2  4  1  0
  4  5  2  0
  5  6  1  0
  6  7  2  0
  7  8  1  0
  8  9  1  0
  9 10  1  0
 10 11  2  0
 11 12  1  0
 12 13  2  0
 13 14  1  0
 14 15  2  0
 10 15  1  0
 14 16  1  0
 16 17  1  0
 17 18  2  0
 18 19  1  0
 19 20  1  0
 20 21  2  0
 21 22  1  0
 22 23  2  0
 23 24  1  0
 16 24  2  0
 19 24  1  0
  8 25  2  0
  4 25  1  0
M  CHG  2   1  -1   2   1
M  END
>  <pIC50>  (405) 
9.52

>  <chembl_id>  (405) 
CHEMBL526110

>  <canonical_smiles>  (405) 
[O-][N+](=O)c1cccc(Nc2nccc(n2)c3cnn4ncccc34)c1

$$$$
CHEMBL527039
     RDKit          2D

 28 31  0  0  0  0  0  0  0  0999 V2000
   -2.2176   -9.3831    0.0000 C   0  0  0  0  0  0  0  0  0  0  0  0
   -2.7697   -8.7700    0.0000 O   0  0  0  0  0  0  0  0  0  0  0  0
   -2.5147   -7.9854    0.0000 C   0  0  0  0  0  0  0  0  0  0  0  0
   -3.0668   -7.3723    0.0000 C   0  0  0  0  0  0  0  0  0  0  0  0
   -2.8118   -6.5877    0.0000 C   0  0  0  0  0  0  0  0  0  0  0  0
   -2.0049   -6.4162    0.0000 C   0  0  0  0  0  0  0  0  0  0  0  0
   -1.4528   -7.0293    0.0000 C   0  0  0  0  0  0  0  0  0  0  0  0
   -1.7078   -7.8139    0.0000 C   0  0  0  0  0  0  0  0  0  0  0  0
   -1.7499   -5.6315    0.0000 C   0  0  0  0  0  0  0  0  0  0  0  0
   -2.3020   -5.0184    0.0000 C   0  0  0  0  0  0  0  0  0  0  0  0
   -2.0470   -4.2338    0.0000 C   0  0  0  0  0  0  0  0  0  0  0  0
   -1.2400   -4.0623    0.0000 C   0  0  0  0  0  0  0  0  0  0  0  0
   -0.6880   -4.6754    0.0000 C   0  0  0  0  0  0  0  0  0  0  0  0
   -0.9429   -5.4600    0.0000 C   0  0  0  0  0  0  0  0  0  0  0  0
   -0.9851   -3.2777    0.0000 C   0  0  0  0  0  0  0  0  0  0  0  0
   -1.5371   -2.6646    0.0000 O   0  0  0  0  0  0  0  0  0  0  0  0
   -0.1781   -3.1062    0.0000 N   0  0  0  0  0  0  0  0  0  0  0  0
    0.0768   -2.3215    0.0000 C   0  0  0  0  0  0  0  0  0  0  0  0
    0.8838   -2.1500    0.0000 C   0  0  0  0  0  0  0  0  0  0  0  0
    1.1387   -1.3654    0.0000 C   0  0  0  0  0  0  0  0  0  0  0  0
    0.6538   -0.6979    0.0000 C   0  0  0  0  0  0  0  0  0  0  0  0
    1.1387   -0.0305    0.0000 N   0  0  0  0  0  0  0  0  0  0  0  0
    1.9233   -0.2854    0.0000 C   0  0  0  0  0  0  0  0  0  0  0  0
    2.6378    0.1271    0.0000 C   0  0  0  0  0  0  0  0  0  0  0  0
    3.3523   -0.2854    0.0000 C   0  0  0  0  0  0  0  0  0  0  0  0
    3.3523   -1.1104    0.0000 C   0  0  0  0  0  0  0  0  0  0  0  0
    2.6378   -1.5229    0.0000 C   0  0  0  0  0  0  0  0  0  0  0  0
    1.9233   -1.1104    0.0000 C   0  0  0  0  0  0  0  0  0  0  0  0
  1  2  1  0
  2  3  1  0
  3  4  2  0
  4  5  1  0
  5  6  2  0
  6  7  1  0
  7  8  2  0
  3  8  1  0
  6  9  1  0
  9 10  2  0
 10 11  1  0
 11 12  2  0
 12 13  1  0
 13 14  2  0
  9 14  1  0
 12 15  1  0
 15 16  2  0
 15 17  1  0
 17 18  1  0
 18 19  1  0
 19 20  1  0
 20 21  2  0
 21 22  1  0
 22 23  1  0
 23 24  2  0
 24 25  1  0
 25 26  2  0
 26 27  1  0
 27 28  2  0
 20 28  1  0
 23 28  1  0
M  END
>  <pIC50>  (406) 
2.96

>  <chembl_id>  (406) 
CHEMBL527039

>  <canonical_smiles>  (406) 
COc1ccc(cc1)c2ccc(cc2)C(=O)NCCc3c[nH]c4ccccc34

$$$$
CHEMBL540971
     RDKit          2D

 23 26  0  0  0  0  0  0  0  0999 V2000
   -3.1062   -4.5986    0.0000 F   0  0  0  0  0  0  0  0  0  0  0  0
   -2.3917   -4.1861    0.0000 C   0  0  0  0  0  0  0  0  0  0  0  0
   -2.3917   -3.3611    0.0000 C   0  0  0  0  0  0  0  0  0  0  0  0
   -1.6772   -2.9486    0.0000 C   0  0  0  0  0  0  0  0  0  0  0  0
   -0.9628   -3.3611    0.0000 C   0  0  0  0  0  0  0  0  0  0  0  0
   -0.1781   -3.1062    0.0000 N   0  0  0  0  0  0  0  0  0  0  0  0
    0.3068   -3.7736    0.0000 C   0  0  0  0  0  0  0  0  0  0  0  0
   -0.1781   -4.4410    0.0000 C   0  0  0  0  0  0  0  0  0  0  0  0
   -0.9628   -4.1861    0.0000 C   0  0  0  0  0  0  0  0  0  0  0  0
   -1.6772   -4.5986    0.0000 C   0  0  0  0  0  0  0  0  0  0  0  0
    0.0768   -2.3215    0.0000 C   0  0  0  0  0  0  0  0  0  0  0  0
   -0.4752   -1.7084    0.0000 O   0  0  0  0  0  0  0  0  0  0  0  0
    0.8838   -2.1500    0.0000 C   0  0  0  0  0  0  0  0  0  0  0  0
    1.4358   -2.7631    0.0000 O   0  0  0  0  0  0  0  0  0  0  0  0
    1.1387   -1.3654    0.0000 C   0  0  0  0  0  0  0  0  0  0  0  0
    0.6538   -0.6979    0.0000 C   0  0  0  0  0  0  0  0  0  0  0  0
    1.1387   -0.0305    0.0000 N   0  0  0  0  0  0  0  0  0  0  0  0
    1.9233   -0.2854    0.0000 C   0  0  0  0  0  0  0  0  0  0  0  0
    2.6378    0.1271    0.0000 C   0  0  0  0  0  0  0  0  0  0  0  0
    3.3523   -0.2854    0.0000 C   0  0  0  0  0  0  0  0  0  0  0  0
    3.3523   -1.1104    0.0000 C   0  0  0  0  0  0  0  0  0  0  0  0
    2.6378   -1.5229    0.0000 C   0  0  0  0  0  0  0  0  0  0  0  0
    1.9233   -1.1104    0.0000 C   0  0  0  0  0  0  0  0  0  0  0  0
  1  2  1  0
  2  3  2  0
  3  4  1  0
  4  5  2  0
  5  6  1  0
  6  7  1  0
  7  8  1  0
  8  9  1  0
  5  9  1  0
  9 10  2  0
  2 10  1  0
  6 11  1  0
 11 12  2  0
 11 13  1  0
 13 14  2  0
 13 15  1  0
 15 16  2  0
 16 17  1  0
 17 18  1  0
 18 19  2  0
 19 20  1  0
 20 21  2  0
 21 22  1  0
 22 23  2  0
 15 23  1  0
 18 23  1  0
M  END
>  <pIC50>  (407) 
3.10

>  <chembl_id>  (407) 
CHEMBL540971

>  <canonical_smiles>  (407) 
Fc1ccc2N(CCc2c1)C(=O)C(=O)c3c[nH]c4ccccc34

$$$$
CHEMBL549303
     RDKit          2D

 22 25  0  0  0  0  0  0  0  0999 V2000
   -3.1062   -4.5986    0.0000 Cl  0  0  0  0  0  0  0  0  0  0  0  0
   -2.3917   -4.1861    0.0000 C   0  0  0  0  0  0  0  0  0  0  0  0
   -2.3917   -3.3611    0.0000 C   0  0  0  0  0  0  0  0  0  0  0  0
   -1.6772   -2.9486    0.0000 C   0  0  0  0  0  0  0  0  0  0  0  0
   -0.9628   -3.3611    0.0000 C   0  0  0  0  0  0  0  0  0  0  0  0
   -0.9628   -4.1861    0.0000 C   0  0  0  0  0  0  0  0  0  0  0  0
   -0.1781   -4.4410    0.0000 C   0  0  0  0  0  0  0  0  0  0  0  0
    0.3068   -3.7736    0.0000 C   0  0  0  0  0  0  0  0  0  0  0  0
   -0.1781   -3.1062    0.0000 N   0  0  0  0  0  0  0  0  0  0  0  0
    0.0768   -2.3215    0.0000 C   0  0  0  0  0  0  0  0  0  0  0  0
    0.8838   -2.1500    0.0000 C   0  0  0  0  0  0  0  0  0  0  0  0
    1.1387   -1.3654    0.0000 C   0  0  0  0  0  0  0  0  0  0  0  0
    0.6538   -0.6979    0.0000 C   0  0  0  0  0  0  0  0  0  0  0  0
    1.1387   -0.0305    0.0000 N   0  0  0  0  0  0  0  0  0  0  0  0
    1.9233   -0.2854    0.0000 C   0  0  0  0  0  0  0  0  0  0  0  0
    2.6378    0.1271    0.0000 C   0  0  0  0  0  0  0  0  0  0  0  0
    3.3523   -0.2854    0.0000 C   0  0  0  0  0  0  0  0  0  0  0  0
    3.3523   -1.1104    0.0000 C   0  0  0  0  0  0  0  0  0  0  0  0
    4.0668   -1.5229    0.0000 Cl  0  0  0  0  0  0  0  0  0  0  0  0
    2.6378   -1.5229    0.0000 C   0  0  0  0  0  0  0  0  0  0  0  0
    1.9233   -1.1104    0.0000 C   0  0  0  0  0  0  0  0  0  0  0  0
   -1.6772   -4.5986    0.0000 C   0  0  0  0  0  0  0  0  0  0  0  0
  1  2  1  0
  2  3  2  0
  3  4  1  0
  4  5  2  0
  5  6  1  0
  6  7  1  0
  7  8  2  0
  8  9  1  0
  5  9  1  0
  9 10  1  0
 10 11  1  0
 11 12  1  0
 12 13  2  0
 13 14  1  0
 14 15  1  0
 15 16  2  0
 16 17  1  0
 17 18  2  0
 18 19  1  0
 18 20  1  0
 20 21  2  0
 12 21  1  0
 15 21  1  0
  6 22  2  0
  2 22  1  0
M  END
>  <pIC50>  (408) 
3.06

>  <chembl_id>  (408) 
CHEMBL549303

>  <canonical_smiles>  (408) 
Clc1ccc2c(ccn2CCc3c[nH]c4ccc(Cl)cc34)c1

$$$$
CHEMBL549792
     RDKit          2D

 20 23  0  0  0  0  0  0  0  0999 V2000
    0.8838   -2.1500    0.0000 C   0  0  0  0  0  0  0  0  0  0  0  0
    0.0768   -2.3215    0.0000 C   0  0  0  0  0  0  0  0  0  0  0  0
   -0.1781   -3.1062    0.0000 N   0  0  0  0  0  0  0  0  0  0  0  0
    0.3068   -3.7736    0.0000 C   0  0  0  0  0  0  0  0  0  0  0  0
   -0.1781   -4.4410    0.0000 C   0  0  0  0  0  0  0  0  0  0  0  0
   -0.9628   -4.1861    0.0000 C   0  0  0  0  0  0  0  0  0  0  0  0
   -1.6772   -4.5986    0.0000 C   0  0  0  0  0  0  0  0  0  0  0  0
   -2.3917   -4.1861    0.0000 C   0  0  0  0  0  0  0  0  0  0  0  0
   -2.3917   -3.3611    0.0000 C   0  0  0  0  0  0  0  0  0  0  0  0
   -1.6772   -2.9486    0.0000 C   0  0  0  0  0  0  0  0  0  0  0  0
   -0.9628   -3.3611    0.0000 C   0  0  0  0  0  0  0  0  0  0  0  0
    1.1387   -1.3654    0.0000 N   0  0  0  0  0  0  0  0  0  0  0  0
    0.6538   -0.6979    0.0000 C   0  0  0  0  0  0  0  0  0  0  0  0
    1.1387   -0.0305    0.0000 C   0  0  0  0  0  0  0  0  0  0  0  0
    1.9233   -0.2854    0.0000 C   0  0  0  0  0  0  0  0  0  0  0  0
    2.6378    0.1271    0.0000 C   0  0  0  0  0  0  0  0  0  0  0  0
    3.3523   -0.2854    0.0000 C   0  0  0  0  0  0  0  0  0  0  0  0
    3.3523   -1.1104    0.0000 C   0  0  0  0  0  0  0  0  0  0  0  0
    2.6378   -1.5229    0.0000 C   0  0  0  0  0  0  0  0  0  0  0  0
    1.9233   -1.1104    0.0000 C   0  0  0  0  0  0  0  0  0  0  0  0
  1  2  1  0
  2  3  1  0
  3  4  1  0
  4  5  2  0
  5  6  1  0
  6  7  2  0
  7  8  1  0
  8  9  2  0
  9 10  1  0
 10 11  2  0
  3 11  1  0
  6 11  1  0
  1 12  1  0
 12 13  1  0
 13 14  2  0
 14 15  1  0
 15 16  2  0
 16 17  1  0
 17 18  2  0
 18 19  1  0
 19 20  2  0
 12 20  1  0
 15 20  1  0
M  END
>  <pIC50>  (409) 
3.03

>  <chembl_id>  (409) 
CHEMBL549792

>  <canonical_smiles>  (409) 
C(Cn1ccc2ccccc12)n3ccc4ccccc34

$$$$
CHEMBL549850
     RDKit          2D

 24 27  0  0  0  0  0  0  0  0999 V2000
    6.9960   -1.2636    0.0000 C   0  0  0  0  0  0  0  0  0  0  0  0
    6.2815   -0.8511    0.0000 C   0  0  0  0  0  0  0  0  0  0  0  0
    5.5670   -1.2636    0.0000 C   0  0  0  0  0  0  0  0  0  0  0  0
    4.8525   -0.8511    0.0000 C   0  0  0  0  0  0  0  0  0  0  0  0
    4.1381   -1.2636    0.0000 N   0  0  0  0  0  0  0  0  0  0  0  0
    4.0518   -2.0841    0.0000 C   0  0  0  0  0  0  0  0  0  0  0  0
    3.2449   -2.2556    0.0000 C   0  0  0  0  0  0  0  0  0  0  0  0
    2.8324   -1.5412    0.0000 C   0  0  0  0  0  0  0  0  0  0  0  0
    2.0254   -1.3696    0.0000 C   0  0  0  0  0  0  0  0  0  0  0  0
    1.7705   -0.5850    0.0000 C   0  0  0  0  0  0  0  0  0  0  0  0
    2.3225    0.0281    0.0000 C   0  0  0  0  0  0  0  0  0  0  0  0
    3.1295   -0.1435    0.0000 C   0  0  0  0  0  0  0  0  0  0  0  0
    3.3844   -0.9281    0.0000 C   0  0  0  0  0  0  0  0  0  0  0  0
    7.7104   -0.8511    0.0000 C   0  0  0  0  0  0  0  0  0  0  0  0
    8.4249   -1.2636    0.0000 C   0  0  0  0  0  0  0  0  0  0  0  0
    9.1394   -0.8511    0.0000 N   0  0  0  0  0  0  0  0  0  0  0  0
    9.2256   -0.0307    0.0000 C   0  0  0  0  0  0  0  0  0  0  0  0
   10.0326    0.1409    0.0000 C   0  0  0  0  0  0  0  0  0  0  0  0
   10.4451   -0.5736    0.0000 C   0  0  0  0  0  0  0  0  0  0  0  0
   11.2521   -0.7451    0.0000 C   0  0  0  0  0  0  0  0  0  0  0  0
   11.5070   -1.5298    0.0000 C   0  0  0  0  0  0  0  0  0  0  0  0
   10.9550   -2.1428    0.0000 C   0  0  0  0  0  0  0  0  0  0  0  0
   10.1480   -1.9713    0.0000 C   0  0  0  0  0  0  0  0  0  0  0  0
    9.8930   -1.1867    0.0000 C   0  0  0  0  0  0  0  0  0  0  0  0
  1  2  1  0
  2  3  1  0
  3  4  1  0
  4  5  1  0
  5  6  1  0
  6  7  2  0
  7  8  1  0
  8  9  2  0
  9 10  1  0
 10 11  2  0
 11 12  1  0
 12 13  2  0
  5 13  1  0
  8 13  1  0
  1 14  1  0
 14 15  1  0
 15 16  1  0
 16 17  1  0
 17 18  2  0
 18 19  1  0
 19 20  2  0
 20 21  1  0
 21 22  2  0
 22 23  1  0
 23 24  2  0
 16 24  1  0
 19 24  1  0
M  END
>  <pIC50>  (410) 
2.92

>  <chembl_id>  (410) 
CHEMBL549850

>  <canonical_smiles>  (410) 
C(CCCn1ccc2ccccc12)CCn3ccc4ccccc34

$$$$
CHEMBL551612
     RDKit          2D

 23 26  0  0  0  0  0  0  0  0999 V2000
    7.6056    0.1488    0.0000 F   0  0  0  0  0  0  0  0  0  0  0  0
    6.8912   -0.2637    0.0000 C   0  0  0  0  0  0  0  0  0  0  0  0
    6.8912   -1.0887    0.0000 C   0  0  0  0  0  0  0  0  0  0  0  0
    6.1767   -1.5012    0.0000 C   0  0  0  0  0  0  0  0  0  0  0  0
    5.4622   -1.0887    0.0000 C   0  0  0  0  0  0  0  0  0  0  0  0
    4.6776   -1.3436    0.0000 N   0  0  0  0  0  0  0  0  0  0  0  0
    4.1927   -0.6762    0.0000 C   0  0  0  0  0  0  0  0  0  0  0  0
    4.6776   -0.0087    0.0000 C   0  0  0  0  0  0  0  0  0  0  0  0
    4.4227    0.7759    0.0000 C   0  0  0  0  0  0  0  0  0  0  0  0
    3.6157    0.9474    0.0000 O   0  0  0  0  0  0  0  0  0  0  0  0
    4.9747    1.3890    0.0000 C   0  0  0  0  0  0  0  0  0  0  0  0
    5.7817    1.2175    0.0000 O   0  0  0  0  0  0  0  0  0  0  0  0
    4.7198    2.1736    0.0000 N   0  0  0  0  0  0  0  0  0  0  0  0
    3.9351    2.4286    0.0000 C   0  0  0  0  0  0  0  0  0  0  0  0
    3.9351    3.2536    0.0000 C   0  0  0  0  0  0  0  0  0  0  0  0
    4.7198    3.5085    0.0000 C   0  0  0  0  0  0  0  0  0  0  0  0
    5.0553    4.2622    0.0000 C   0  0  0  0  0  0  0  0  0  0  0  0
    5.8758    4.3484    0.0000 C   0  0  0  0  0  0  0  0  0  0  0  0
    6.3607    3.6810    0.0000 C   0  0  0  0  0  0  0  0  0  0  0  0
    6.0252    2.9273    0.0000 C   0  0  0  0  0  0  0  0  0  0  0  0
    5.2047    2.8411    0.0000 C   0  0  0  0  0  0  0  0  0  0  0  0
    5.4622   -0.2637    0.0000 C   0  0  0  0  0  0  0  0  0  0  0  0
    6.1767    0.1488    0.0000 C   0  0  0  0  0  0  0  0  0  0  0  0
  1  2  1  0
  2  3  2  0
  3  4  1  0
  4  5  2  0
  5  6  1  0
  6  7  1  0
  7  8  2  0
  8  9  1  0
  9 10  2  0
  9 11  1  0
 11 12  2  0
 11 13  1  0
 13 14  1  0
 14 15  1  0
 15 16  1  0
 16 17  2  0
 17 18  1  0
 18 19  2  0
 19 20  1  0
 20 21  2  0
 13 21  1  0
 16 21  1  0
  8 22  1  0
  5 22  1  0
 22 23  2  0
  2 23  1  0
M  END
>  <pIC50>  (411) 
2.94

>  <chembl_id>  (411) 
CHEMBL551612

>  <canonical_smiles>  (411) 
Fc1ccc2[nH]cc(C(=O)C(=O)N3CCc4ccccc34)c2c1

$$$$
CHEMBL551936
     RDKit          2D

 23 26  0  0  0  0  0  0  0  0999 V2000
    7.6056    0.1488    0.0000 Cl  0  0  0  0  0  0  0  0  0  0  0  0
    6.8912   -0.2637    0.0000 C   0  0  0  0  0  0  0  0  0  0  0  0
    6.8912   -1.0887    0.0000 C   0  0  0  0  0  0  0  0  0  0  0  0
    6.1767   -1.5012    0.0000 C   0  0  0  0  0  0  0  0  0  0  0  0
    5.4622   -1.0887    0.0000 C   0  0  0  0  0  0  0  0  0  0  0  0
    4.6776   -1.3436    0.0000 N   0  0  0  0  0  0  0  0  0  0  0  0
    4.1927   -0.6762    0.0000 C   0  0  0  0  0  0  0  0  0  0  0  0
    4.6776   -0.0087    0.0000 C   0  0  0  0  0  0  0  0  0  0  0  0
    4.4227    0.7759    0.0000 C   0  0  0  0  0  0  0  0  0  0  0  0
    3.6157    0.9474    0.0000 O   0  0  0  0  0  0  0  0  0  0  0  0
    4.9747    1.3890    0.0000 C   0  0  0  0  0  0  0  0  0  0  0  0
    5.7817    1.2175    0.0000 O   0  0  0  0  0  0  0  0  0  0  0  0
    4.7198    2.1736    0.0000 N   0  0  0  0  0  0  0  0  0  0  0  0
    3.9351    2.4286    0.0000 C   0  0  0  0  0  0  0  0  0  0  0  0
    3.9351    3.2536    0.0000 C   0  0  0  0  0  0  0  0  0  0  0  0
    4.7198    3.5085    0.0000 C   0  0  0  0  0  0  0  0  0  0  0  0
    5.0553    4.2622    0.0000 C   0  0  0  0  0  0  0  0  0  0  0  0
    5.8758    4.3484    0.0000 C   0  0  0  0  0  0  0  0  0  0  0  0
    6.3607    3.6810    0.0000 C   0  0  0  0  0  0  0  0  0  0  0  0
    6.0252    2.9273    0.0000 C   0  0  0  0  0  0  0  0  0  0  0  0
    5.2047    2.8411    0.0000 C   0  0  0  0  0  0  0  0  0  0  0  0
    5.4622   -0.2637    0.0000 C   0  0  0  0  0  0  0  0  0  0  0  0
    6.1767    0.1488    0.0000 C   0  0  0  0  0  0  0  0  0  0  0  0
  1  2  1  0
  2  3  2  0
  3  4  1  0
  4  5  2  0
  5  6  1  0
  6  7  1  0
  7  8  2  0
  8  9  1  0
  9 10  2  0
  9 11  1  0
 11 12  2  0
 11 13  1  0
 13 14  1  0
 14 15  1  0
 15 16  1  0
 16 17  2  0
 17 18  1  0
 18 19  2  0
 19 20  1  0
 20 21  2  0
 13 21  1  0
 16 21  1  0
  8 22  1  0
  5 22  1  0
 22 23  2  0
  2 23  1  0
M  END
>  <pIC50>  (412) 
3.01

>  <chembl_id>  (412) 
CHEMBL551936

>  <canonical_smiles>  (412) 
Clc1ccc2[nH]cc(C(=O)C(=O)N3CCc4ccccc34)c2c1

$$$$
CHEMBL552136
     RDKit          2D

 24 27  0  0  0  0  0  0  0  0999 V2000
   -3.1062   -4.5986    0.0000 Cl  0  0  0  0  0  0  0  0  0  0  0  0
   -2.3917   -4.1861    0.0000 C   0  0  0  0  0  0  0  0  0  0  0  0
   -2.3917   -3.3611    0.0000 C   0  0  0  0  0  0  0  0  0  0  0  0
   -1.6772   -2.9486    0.0000 C   0  0  0  0  0  0  0  0  0  0  0  0
   -0.9628   -3.3611    0.0000 C   0  0  0  0  0  0  0  0  0  0  0  0
   -0.1781   -3.1062    0.0000 N   0  0  0  0  0  0  0  0  0  0  0  0
    0.3068   -3.7736    0.0000 C   0  0  0  0  0  0  0  0  0  0  0  0
   -0.1781   -4.4410    0.0000 C   0  0  0  0  0  0  0  0  0  0  0  0
   -0.9628   -4.1861    0.0000 C   0  0  0  0  0  0  0  0  0  0  0  0
   -1.6772   -4.5986    0.0000 C   0  0  0  0  0  0  0  0  0  0  0  0
    0.0768   -2.3215    0.0000 C   0  0  0  0  0  0  0  0  0  0  0  0
   -0.4752   -1.7084    0.0000 O   0  0  0  0  0  0  0  0  0  0  0  0
    0.8838   -2.1500    0.0000 C   0  0  0  0  0  0  0  0  0  0  0  0
    1.4358   -2.7631    0.0000 O   0  0  0  0  0  0  0  0  0  0  0  0
    1.1387   -1.3654    0.0000 C   0  0  0  0  0  0  0  0  0  0  0  0
    0.6538   -0.6979    0.0000 C   0  0  0  0  0  0  0  0  0  0  0  0
    1.1387   -0.0305    0.0000 N   0  0  0  0  0  0  0  0  0  0  0  0
    1.9233   -0.2854    0.0000 C   0  0  0  0  0  0  0  0  0  0  0  0
    2.6378    0.1271    0.0000 C   0  0  0  0  0  0  0  0  0  0  0  0
    3.3523   -0.2854    0.0000 C   0  0  0  0  0  0  0  0  0  0  0  0
    3.3523   -1.1104    0.0000 C   0  0  0  0  0  0  0  0  0  0  0  0
    4.0668   -1.5229    0.0000 Cl  0  0  0  0  0  0  0  0  0  0  0  0
    2.6378   -1.5229    0.0000 C   0  0  0  0  0  0  0  0  0  0  0  0
    1.9233   -1.1104    0.0000 C   0  0  0  0  0  0  0  0  0  0  0  0
  1  2  1  0
  2  3  2  0
  3  4  1  0
  4  5  2  0
  5  6  1  0
  6  7  1  0
  7  8  1  0
  8  9  1  0
  5  9  1  0
  9 10  2  0
  2 10  1  0
  6 11  1  0
 11 12  2  0
 11 13  1  0
 13 14  2  0
 13 15  1  0
 15 16  2  0
 16 17  1  0
 17 18  1  0
 18 19  2  0
 19 20  1  0
 20 21  2  0
 21 22  1  0
 21 23  1  0
 23 24  2  0
 15 24  1  0
 18 24  1  0
M  END
>  <pIC50>  (413) 
3.04

>  <chembl_id>  (413) 
CHEMBL552136

>  <canonical_smiles>  (413) 
Clc1ccc2N(CCc2c1)C(=O)C(=O)c3c[nH]c4ccc(Cl)cc34

$$$$
CHEMBL556095
     RDKit          2D

 21 24  0  0  0  0  0  0  0  0999 V2000
   -3.1062   -4.5986    0.0000 C   0  0  0  0  0  0  0  0  0  0  0  0
   -2.3917   -4.1861    0.0000 C   0  0  0  0  0  0  0  0  0  0  0  0
   -2.3917   -3.3611    0.0000 C   0  0  0  0  0  0  0  0  0  0  0  0
   -1.6772   -2.9486    0.0000 C   0  0  0  0  0  0  0  0  0  0  0  0
   -0.9628   -3.3611    0.0000 C   0  0  0  0  0  0  0  0  0  0  0  0
   -0.9628   -4.1861    0.0000 C   0  0  0  0  0  0  0  0  0  0  0  0
   -0.1781   -4.4410    0.0000 C   0  0  0  0  0  0  0  0  0  0  0  0
    0.3068   -3.7736    0.0000 C   0  0  0  0  0  0  0  0  0  0  0  0
   -0.1781   -3.1062    0.0000 N   0  0  0  0  0  0  0  0  0  0  0  0
    0.0768   -2.3215    0.0000 C   0  0  0  0  0  0  0  0  0  0  0  0
    0.8838   -2.1500    0.0000 C   0  0  0  0  0  0  0  0  0  0  0  0
    1.1387   -1.3654    0.0000 C   0  0  0  0  0  0  0  0  0  0  0  0
    0.6538   -0.6979    0.0000 C   0  0  0  0  0  0  0  0  0  0  0  0
    1.1387   -0.0305    0.0000 N   0  0  0  0  0  0  0  0  0  0  0  0
    1.9233   -0.2854    0.0000 C   0  0  0  0  0  0  0  0  0  0  0  0
    2.6378    0.1271    0.0000 C   0  0  0  0  0  0  0  0  0  0  0  0
    3.3523   -0.2854    0.0000 C   0  0  0  0  0  0  0  0  0  0  0  0
    3.3523   -1.1104    0.0000 C   0  0  0  0  0  0  0  0  0  0  0  0
    2.6378   -1.5229    0.0000 C   0  0  0  0  0  0  0  0  0  0  0  0
    1.9233   -1.1104    0.0000 C   0  0  0  0  0  0  0  0  0  0  0  0
   -1.6772   -4.5986    0.0000 C   0  0  0  0  0  0  0  0  0  0  0  0
  1  2  1  0
  2  3  2  0
  3  4  1  0
  4  5  2  0
  5  6  1  0
  6  7  1  0
  7  8  2  0
  8  9  1  0
  5  9  1  0
  9 10  1  0
 10 11  1  0
 11 12  1  0
 12 13  2  0
 13 14  1  0
 14 15  1  0
 15 16  2  0
 16 17  1  0
 17 18  2  0
 18 19  1  0
 19 20  2  0
 12 20  1  0
 15 20  1  0
  6 21  2  0
  2 21  1  0
M  END
>  <pIC50>  (414) 
3.30

>  <chembl_id>  (414) 
CHEMBL556095

>  <canonical_smiles>  (414) 
Cc1ccc2c(ccn2CCc3c[nH]c4ccccc34)c1

$$$$
CHEMBL556712
     RDKit          2D

 22 25  0  0  0  0  0  0  0  0999 V2000
   -0.4752   -1.7084    0.0000 O   0  0  0  0  0  0  0  0  0  0  0  0
    0.0768   -2.3215    0.0000 C   0  0  0  0  0  0  0  0  0  0  0  0
   -0.1781   -3.1062    0.0000 N   0  0  0  0  0  0  0  0  0  0  0  0
    0.3068   -3.7736    0.0000 C   0  0  0  0  0  0  0  0  0  0  0  0
   -0.1781   -4.4410    0.0000 C   0  0  0  0  0  0  0  0  0  0  0  0
   -0.9628   -4.1861    0.0000 C   0  0  0  0  0  0  0  0  0  0  0  0
   -1.6772   -4.5986    0.0000 C   0  0  0  0  0  0  0  0  0  0  0  0
   -2.3917   -4.1861    0.0000 C   0  0  0  0  0  0  0  0  0  0  0  0
   -2.3917   -3.3611    0.0000 C   0  0  0  0  0  0  0  0  0  0  0  0
   -1.6772   -2.9486    0.0000 C   0  0  0  0  0  0  0  0  0  0  0  0
   -0.9628   -3.3611    0.0000 C   0  0  0  0  0  0  0  0  0  0  0  0
    0.8838   -2.1500    0.0000 C   0  0  0  0  0  0  0  0  0  0  0  0
    1.4358   -2.7631    0.0000 O   0  0  0  0  0  0  0  0  0  0  0  0
    1.1387   -1.3654    0.0000 C   0  0  0  0  0  0  0  0  0  0  0  0
    0.6538   -0.6979    0.0000 C   0  0  0  0  0  0  0  0  0  0  0  0
    1.1387   -0.0305    0.0000 N   0  0  0  0  0  0  0  0  0  0  0  0
    1.9233   -0.2854    0.0000 C   0  0  0  0  0  0  0  0  0  0  0  0
    2.6378    0.1271    0.0000 C   0  0  0  0  0  0  0  0  0  0  0  0
    3.3523   -0.2854    0.0000 C   0  0  0  0  0  0  0  0  0  0  0  0
    3.3523   -1.1104    0.0000 C   0  0  0  0  0  0  0  0  0  0  0  0
    2.6378   -1.5229    0.0000 C   0  0  0  0  0  0  0  0  0  0  0  0
    1.9233   -1.1104    0.0000 C   0  0  0  0  0  0  0  0  0  0  0  0
  1  2  2  0
  2  3  1  0
  3  4  1  0
  4  5  1  0
  5  6  1  0
  6  7  2  0
  7  8  1  0
  8  9  2  0
  9 10  1  0
 10 11  2  0
  3 11  1  0
  6 11  1  0
  2 12  1  0
 12 13  2  0
 12 14  1  0
 14 15  2  0
 15 16  1  0
 16 17  1  0
 17 18  2  0
 18 19  1  0
 19 20  2  0
 20 21  1  0
 21 22  2  0
 14 22  1  0
 17 22  1  0
M  END
>  <pIC50>  (415) 
3.12

>  <chembl_id>  (415) 
CHEMBL556712

>  <canonical_smiles>  (415) 
O=C(N1CCc2ccccc12)C(=O)c3c[nH]c4ccccc34

$$$$
CHEMBL557049
     RDKit          2D

 21 24  0  0  0  0  0  0  0  0999 V2000
   -3.1062   -4.5986    0.0000 Cl  0  0  0  0  0  0  0  0  0  0  0  0
   -2.3917   -4.1861    0.0000 C   0  0  0  0  0  0  0  0  0  0  0  0
   -2.3917   -3.3611    0.0000 C   0  0  0  0  0  0  0  0  0  0  0  0
   -1.6772   -2.9486    0.0000 C   0  0  0  0  0  0  0  0  0  0  0  0
   -0.9628   -3.3611    0.0000 C   0  0  0  0  0  0  0  0  0  0  0  0
   -0.9628   -4.1861    0.0000 C   0  0  0  0  0  0  0  0  0  0  0  0
   -0.1781   -4.4410    0.0000 C   0  0  0  0  0  0  0  0  0  0  0  0
    0.3068   -3.7736    0.0000 C   0  0  0  0  0  0  0  0  0  0  0  0
   -0.1781   -3.1062    0.0000 N   0  0  0  0  0  0  0  0  0  0  0  0
    0.0768   -2.3215    0.0000 C   0  0  0  0  0  0  0  0  0  0  0  0
    0.8838   -2.1500    0.0000 C   0  0  0  0  0  0  0  0  0  0  0  0
    1.1387   -1.3654    0.0000 C   0  0  0  0  0  0  0  0  0  0  0  0
    0.6538   -0.6979    0.0000 C   0  0  0  0  0  0  0  0  0  0  0  0
    1.1387   -0.0305    0.0000 N   0  0  0  0  0  0  0  0  0  0  0  0
    1.9233   -0.2854    0.0000 C   0  0  0  0  0  0  0  0  0  0  0  0
    2.6378    0.1271    0.0000 C   0  0  0  0  0  0  0  0  0  0  0  0
    3.3523   -0.2854    0.0000 C   0  0  0  0  0  0  0  0  0  0  0  0
    3.3523   -1.1104    0.0000 C   0  0  0  0  0  0  0  0  0  0  0  0
    2.6378   -1.5229    0.0000 C   0  0  0  0  0  0  0  0  0  0  0  0
    1.9233   -1.1104    0.0000 C   0  0  0  0  0  0  0  0  0  0  0  0
   -1.6772   -4.5986    0.0000 C   0  0  0  0  0  0  0  0  0  0  0  0
  1  2  1  0
  2  3  2  0
  3  4  1  0
  4  5  2  0
  5  6  1  0
  6  7  1  0
  7  8  2  0
  8  9  1  0
  5  9  1  0
  9 10  1  0
 10 11  1  0
 11 12  1  0
 12 13  2  0
 13 14  1  0
 14 15  1  0
 15 16  2  0
 16 17  1  0
 17 18  2  0
 18 19  1  0
 19 20  2  0
 12 20  1  0
 15 20  1  0
  6 21  2  0
  2 21  1  0
M  END
>  <pIC50>  (416) 
3.37

>  <chembl_id>  (416) 
CHEMBL557049

>  <canonical_smiles>  (416) 
Clc1ccc2c(ccn2CCc3c[nH]c4ccccc34)c1

$$$$
CHEMBL557050
     RDKit          2D

 20 23  0  0  0  0  0  0  0  0999 V2000
    0.8838   -2.1500    0.0000 C   0  0  0  0  0  0  0  0  0  0  0  0
    0.0768   -2.3215    0.0000 C   0  0  0  0  0  0  0  0  0  0  0  0
   -0.1781   -3.1062    0.0000 N   0  0  0  0  0  0  0  0  0  0  0  0
    0.3068   -3.7736    0.0000 C   0  0  0  0  0  0  0  0  0  0  0  0
   -0.1781   -4.4410    0.0000 C   0  0  0  0  0  0  0  0  0  0  0  0
   -0.9628   -4.1861    0.0000 C   0  0  0  0  0  0  0  0  0  0  0  0
   -1.6772   -4.5986    0.0000 C   0  0  0  0  0  0  0  0  0  0  0  0
   -2.3917   -4.1861    0.0000 C   0  0  0  0  0  0  0  0  0  0  0  0
   -2.3917   -3.3611    0.0000 C   0  0  0  0  0  0  0  0  0  0  0  0
   -1.6772   -2.9486    0.0000 C   0  0  0  0  0  0  0  0  0  0  0  0
   -0.9628   -3.3611    0.0000 C   0  0  0  0  0  0  0  0  0  0  0  0
    1.1387   -1.3654    0.0000 N   0  0  0  0  0  0  0  0  0  0  0  0
    0.6538   -0.6979    0.0000 C   0  0  0  0  0  0  0  0  0  0  0  0
    1.1387   -0.0305    0.0000 C   0  0  0  0  0  0  0  0  0  0  0  0
    1.9233   -0.2854    0.0000 C   0  0  0  0  0  0  0  0  0  0  0  0
    2.6378    0.1271    0.0000 C   0  0  0  0  0  0  0  0  0  0  0  0
    3.3523   -0.2854    0.0000 C   0  0  0  0  0  0  0  0  0  0  0  0
    3.3523   -1.1104    0.0000 C   0  0  0  0  0  0  0  0  0  0  0  0
    2.6378   -1.5229    0.0000 C   0  0  0  0  0  0  0  0  0  0  0  0
    1.9233   -1.1104    0.0000 C   0  0  0  0  0  0  0  0  0  0  0  0
  1  2  1  0
  2  3  1  0
  3  4  1  0
  4  5  1  0
  5  6  1  0
  6  7  2  0
  7  8  1  0
  8  9  2  0
  9 10  1  0
 10 11  2  0
  3 11  1  0
  6 11  1  0
  1 12  1  0
 12 13  1  0
 13 14  1  0
 14 15  1  0
 15 16  2  0
 16 17  1  0
 17 18  2  0
 18 19  1  0
 19 20  2  0
 12 20  1  0
 15 20  1  0
M  END
>  <pIC50>  (417) 
2.91

>  <chembl_id>  (417) 
CHEMBL557050

>  <canonical_smiles>  (417) 
C(CN1CCc2ccccc12)N3CCc4ccccc34

$$$$
CHEMBL557321
     RDKit          2D

 21 24  0  0  0  0  0  0  0  0999 V2000
    7.6056    0.1488    0.0000 F   0  0  0  0  0  0  0  0  0  0  0  0
    6.8912   -0.2637    0.0000 C   0  0  0  0  0  0  0  0  0  0  0  0
    6.8912   -1.0887    0.0000 C   0  0  0  0  0  0  0  0  0  0  0  0
    6.1767   -1.5012    0.0000 C   0  0  0  0  0  0  0  0  0  0  0  0
    5.4622   -1.0887    0.0000 C   0  0  0  0  0  0  0  0  0  0  0  0
    4.6776   -1.3436    0.0000 N   0  0  0  0  0  0  0  0  0  0  0  0
    4.1927   -0.6762    0.0000 C   0  0  0  0  0  0  0  0  0  0  0  0
    4.6776   -0.0087    0.0000 C   0  0  0  0  0  0  0  0  0  0  0  0
    4.4227    0.7759    0.0000 C   0  0  0  0  0  0  0  0  0  0  0  0
    4.9747    1.3890    0.0000 C   0  0  0  0  0  0  0  0  0  0  0  0
    4.7198    2.1736    0.0000 N   0  0  0  0  0  0  0  0  0  0  0  0
    3.9351    2.4286    0.0000 C   0  0  0  0  0  0  0  0  0  0  0  0
    3.9351    3.2536    0.0000 C   0  0  0  0  0  0  0  0  0  0  0  0
    4.7198    3.5085    0.0000 C   0  0  0  0  0  0  0  0  0  0  0  0
    5.0553    4.2622    0.0000 C   0  0  0  0  0  0  0  0  0  0  0  0
    5.8758    4.3484    0.0000 C   0  0  0  0  0  0  0  0  0  0  0  0
    6.3607    3.6810    0.0000 C   0  0  0  0  0  0  0  0  0  0  0  0
    6.0252    2.9273    0.0000 C   0  0  0  0  0  0  0  0  0  0  0  0
    5.2047    2.8411    0.0000 C   0  0  0  0  0  0  0  0  0  0  0  0
    5.4622   -0.2637    0.0000 C   0  0  0  0  0  0  0  0  0  0  0  0
    6.1767    0.1488    0.0000 C   0  0  0  0  0  0  0  0  0  0  0  0
  1  2  1  0
  2  3  2  0
  3  4  1  0
  4  5  2  0
  5  6  1  0
  6  7  1  0
  7  8  2  0
  8  9  1  0
  9 10  1  0
 10 11  1  0
 11 12  1  0
 12 13  2  0
 13 14  1  0
 14 15  2  0
 15 16  1  0
 16 17  2  0
 17 18  1  0
 18 19  2  0
 11 19  1  0
 14 19  1  0
  8 20  1  0
  5 20  1  0
 20 21  2  0
  2 21  1  0
M  END
>  <pIC50>  (418) 
3.70

>  <chembl_id>  (418) 
CHEMBL557321

>  <canonical_smiles>  (418) 
Fc1ccc2[nH]cc(CCn3ccc4ccccc34)c2c1

$$$$
CHEMBL557456
     RDKit          2D

 21 24  0  0  0  0  0  0  0  0999 V2000
    0.0768   -2.3215    0.0000 C   0  0  0  0  0  0  0  0  0  0  0  0
   -0.1781   -3.1062    0.0000 C   0  0  0  0  0  0  0  0  0  0  0  0
   -0.9851   -3.2777    0.0000 N   0  0  0  0  0  0  0  0  0  0  0  0
   -1.3207   -4.0314    0.0000 C   0  0  0  0  0  0  0  0  0  0  0  0
   -2.1411   -3.9451    0.0000 C   0  0  0  0  0  0  0  0  0  0  0  0
   -2.3127   -3.1381    0.0000 C   0  0  0  0  0  0  0  0  0  0  0  0
   -3.0271   -2.7256    0.0000 C   0  0  0  0  0  0  0  0  0  0  0  0
   -3.0271   -1.9006    0.0000 C   0  0  0  0  0  0  0  0  0  0  0  0
   -2.3127   -1.4881    0.0000 C   0  0  0  0  0  0  0  0  0  0  0  0
   -1.5982   -1.9006    0.0000 C   0  0  0  0  0  0  0  0  0  0  0  0
   -1.5982   -2.7256    0.0000 C   0  0  0  0  0  0  0  0  0  0  0  0
    0.8838   -2.1500    0.0000 C   0  0  0  0  0  0  0  0  0  0  0  0
    1.1387   -1.3654    0.0000 N   0  0  0  0  0  0  0  0  0  0  0  0
    0.6538   -0.6979    0.0000 C   0  0  0  0  0  0  0  0  0  0  0  0
    1.1387   -0.0305    0.0000 C   0  0  0  0  0  0  0  0  0  0  0  0
    1.9233   -0.2854    0.0000 C   0  0  0  0  0  0  0  0  0  0  0  0
    2.6378    0.1271    0.0000 C   0  0  0  0  0  0  0  0  0  0  0  0
    3.3523   -0.2854    0.0000 C   0  0  0  0  0  0  0  0  0  0  0  0
    3.3523   -1.1104    0.0000 C   0  0  0  0  0  0  0  0  0  0  0  0
    2.6378   -1.5229    0.0000 C   0  0  0  0  0  0  0  0  0  0  0  0
    1.9233   -1.1104    0.0000 C   0  0  0  0  0  0  0  0  0  0  0  0
  1  2  1  0
  2  3  1  0
  3  4  1  0
  4  5  2  0
  5  6  1  0
  6  7  2  0
  7  8  1  0
  8  9  2  0
  9 10  1  0
 10 11  2  0
  3 11  1  0
  6 11  1  0
  1 12  1  0
 12 13  1  0
 13 14  1  0
 14 15  2  0
 15 16  1  0
 16 17  2  0
 17 18  1  0
 18 19  2  0
 19 20  1  0
 20 21  2  0
 13 21  1  0
 16 21  1  0
M  END
>  <pIC50>  (419) 
2.97

>  <chembl_id>  (419) 
CHEMBL557456

>  <canonical_smiles>  (419) 
C(Cn1ccc2ccccc12)Cn3ccc4ccccc34

$$$$
CHEMBL558601
     RDKit          2D

 23 26  0  0  0  0  0  0  0  0999 V2000
   -3.1062   -4.5986    0.0000 Cl  0  0  0  0  0  0  0  0  0  0  0  0
   -2.3917   -4.1861    0.0000 C   0  0  0  0  0  0  0  0  0  0  0  0
   -2.3917   -3.3611    0.0000 C   0  0  0  0  0  0  0  0  0  0  0  0
   -1.6772   -2.9486    0.0000 C   0  0  0  0  0  0  0  0  0  0  0  0
   -0.9628   -3.3611    0.0000 C   0  0  0  0  0  0  0  0  0  0  0  0
   -0.1781   -3.1062    0.0000 N   0  0  0  0  0  0  0  0  0  0  0  0
    0.3068   -3.7736    0.0000 C   0  0  0  0  0  0  0  0  0  0  0  0
   -0.1781   -4.4410    0.0000 C   0  0  0  0  0  0  0  0  0  0  0  0
   -0.9628   -4.1861    0.0000 C   0  0  0  0  0  0  0  0  0  0  0  0
   -1.6772   -4.5986    0.0000 C   0  0  0  0  0  0  0  0  0  0  0  0
    0.0768   -2.3215    0.0000 C   0  0  0  0  0  0  0  0  0  0  0  0
   -0.4752   -1.7084    0.0000 O   0  0  0  0  0  0  0  0  0  0  0  0
    0.8838   -2.1500    0.0000 C   0  0  0  0  0  0  0  0  0  0  0  0
    1.4358   -2.7631    0.0000 O   0  0  0  0  0  0  0  0  0  0  0  0
    1.1387   -1.3654    0.0000 C   0  0  0  0  0  0  0  0  0  0  0  0
    0.6538   -0.6979    0.0000 C   0  0  0  0  0  0  0  0  0  0  0  0
    1.1387   -0.0305    0.0000 N   0  0  0  0  0  0  0  0  0  0  0  0
    1.9233   -0.2854    0.0000 C   0  0  0  0  0  0  0  0  0  0  0  0
    2.6378    0.1271    0.0000 C   0  0  0  0  0  0  0  0  0  0  0  0
    3.3523   -0.2854    0.0000 C   0  0  0  0  0  0  0  0  0  0  0  0
    3.3523   -1.1104    0.0000 C   0  0  0  0  0  0  0  0  0  0  0  0
    2.6378   -1.5229    0.0000 C   0  0  0  0  0  0  0  0  0  0  0  0
    1.9233   -1.1104    0.0000 C   0  0  0  0  0  0  0  0  0  0  0  0
  1  2  1  0
  2  3  2  0
  3  4  1  0
  4  5  2  0
  5  6  1  0
  6  7  1  0
  7  8  1  0
  8  9  1  0
  5  9  1  0
  9 10  2  0
  2 10  1  0
  6 11  1  0
 11 12  2  0
 11 13  1  0
 13 14  2  0
 13 15  1  0
 15 16  2  0
 16 17  1  0
 17 18  1  0
 18 19  2  0
 19 20  1  0
 20 21  2  0
 21 22  1  0
 22 23  2  0
 15 23  1  0
 18 23  1  0
M  END
>  <pIC50>  (420) 
2.99

>  <chembl_id>  (420) 
CHEMBL558601

>  <canonical_smiles>  (420) 
Clc1ccc2N(CCc2c1)C(=O)C(=O)c3c[nH]c4ccccc34

$$$$
CHEMBL558849
     RDKit          2D

 22 25  0  0  0  0  0  0  0  0999 V2000
    0.0768   -2.3215    0.0000 C   0  0  0  0  0  0  0  0  0  0  0  0
   -0.1781   -3.1062    0.0000 C   0  0  0  0  0  0  0  0  0  0  0  0
   -0.9851   -3.2777    0.0000 C   0  0  0  0  0  0  0  0  0  0  0  0
   -1.2400   -4.0623    0.0000 N   0  0  0  0  0  0  0  0  0  0  0  0
   -0.7551   -4.7297    0.0000 C   0  0  0  0  0  0  0  0  0  0  0  0
   -1.2400   -5.3972    0.0000 C   0  0  0  0  0  0  0  0  0  0  0  0
   -2.0247   -5.1422    0.0000 C   0  0  0  0  0  0  0  0  0  0  0  0
   -2.7391   -5.5547    0.0000 C   0  0  0  0  0  0  0  0  0  0  0  0
   -3.4536   -5.1422    0.0000 C   0  0  0  0  0  0  0  0  0  0  0  0
   -3.4536   -4.3172    0.0000 C   0  0  0  0  0  0  0  0  0  0  0  0
   -2.7391   -3.9047    0.0000 C   0  0  0  0  0  0  0  0  0  0  0  0
   -2.0247   -4.3172    0.0000 C   0  0  0  0  0  0  0  0  0  0  0  0
    0.8838   -2.1500    0.0000 C   0  0  0  0  0  0  0  0  0  0  0  0
    1.1387   -1.3654    0.0000 N   0  0  0  0  0  0  0  0  0  0  0  0
    0.6538   -0.6979    0.0000 C   0  0  0  0  0  0  0  0  0  0  0  0
    1.1387   -0.0305    0.0000 C   0  0  0  0  0  0  0  0  0  0  0  0
    1.9233   -0.2854    0.0000 C   0  0  0  0  0  0  0  0  0  0  0  0
    2.6378    0.1271    0.0000 C   0  0  0  0  0  0  0  0  0  0  0  0
    3.3523   -0.2854    0.0000 C   0  0  0  0  0  0  0  0  0  0  0  0
    3.3523   -1.1104    0.0000 C   0  0  0  0  0  0  0  0  0  0  0  0
    2.6378   -1.5229    0.0000 C   0  0  0  0  0  0  0  0  0  0  0  0
    1.9233   -1.1104    0.0000 C   0  0  0  0  0  0  0  0  0  0  0  0
  1  2  1  0
  2  3  1  0
  3  4  1  0
  4  5  1  0
  5  6  2  0
  6  7  1  0
  7  8  2  0
  8  9  1  0
  9 10  2  0
 10 11  1  0
 11 12  2  0
  4 12  1  0
  7 12  1  0
  1 13  1  0
 13 14  1  0
 14 15  1  0
 15 16  2  0
 16 17  1  0
 17 18  2  0
 18 19  1  0
 19 20  2  0
 20 21  1  0
 21 22  2  0
 14 22  1  0
 17 22  1  0
M  END
>  <pIC50>  (421) 
2.99

>  <chembl_id>  (421) 
CHEMBL558849

>  <canonical_smiles>  (421) 
C(CCn1ccc2ccccc12)Cn3ccc4ccccc34

$$$$
CHEMBL559683
     RDKit          2D

 24 27  0  0  0  0  0  0  0  0999 V2000
   -3.1062   -4.5986    0.0000 F   0  0  0  0  0  0  0  0  0  0  0  0
   -2.3917   -4.1861    0.0000 C   0  0  0  0  0  0  0  0  0  0  0  0
   -2.3917   -3.3611    0.0000 C   0  0  0  0  0  0  0  0  0  0  0  0
   -1.6772   -2.9486    0.0000 C   0  0  0  0  0  0  0  0  0  0  0  0
   -0.9628   -3.3611    0.0000 C   0  0  0  0  0  0  0  0  0  0  0  0
   -0.1781   -3.1062    0.0000 N   0  0  0  0  0  0  0  0  0  0  0  0
    0.3068   -3.7736    0.0000 C   0  0  0  0  0  0  0  0  0  0  0  0
   -0.1781   -4.4410    0.0000 C   0  0  0  0  0  0  0  0  0  0  0  0
   -0.9628   -4.1861    0.0000 C   0  0  0  0  0  0  0  0  0  0  0  0
   -1.6772   -4.5986    0.0000 C   0  0  0  0  0  0  0  0  0  0  0  0
    0.0768   -2.3215    0.0000 C   0  0  0  0  0  0  0  0  0  0  0  0
   -0.4752   -1.7084    0.0000 O   0  0  0  0  0  0  0  0  0  0  0  0
    0.8838   -2.1500    0.0000 C   0  0  0  0  0  0  0  0  0  0  0  0
    1.4358   -2.7631    0.0000 O   0  0  0  0  0  0  0  0  0  0  0  0
    1.1387   -1.3654    0.0000 C   0  0  0  0  0  0  0  0  0  0  0  0
    0.6538   -0.6979    0.0000 C   0  0  0  0  0  0  0  0  0  0  0  0
    1.1387   -0.0305    0.0000 N   0  0  0  0  0  0  0  0  0  0  0  0
    1.9233   -0.2854    0.0000 C   0  0  0  0  0  0  0  0  0  0  0  0
    2.6378    0.1271    0.0000 C   0  0  0  0  0  0  0  0  0  0  0  0
    3.3523   -0.2854    0.0000 C   0  0  0  0  0  0  0  0  0  0  0  0
    3.3523   -1.1104    0.0000 C   0  0  0  0  0  0  0  0  0  0  0  0
    4.0668   -1.5229    0.0000 F   0  0  0  0  0  0  0  0  0  0  0  0
    2.6378   -1.5229    0.0000 C   0  0  0  0  0  0  0  0  0  0  0  0
    1.9233   -1.1104    0.0000 C   0  0  0  0  0  0  0  0  0  0  0  0
  1  2  1  0
  2  3  2  0
  3  4  1  0
  4  5  2  0
  5  6  1  0
  6  7  1  0
  7  8  1  0
  8  9  1  0
  5  9  1  0
  9 10  2  0
  2 10  1  0
  6 11  1  0
 11 12  2  0
 11 13  1  0
 13 14  2  0
 13 15  1  0
 15 16  2  0
 16 17  1  0
 17 18  1  0
 18 19  2  0
 19 20  1  0
 20 21  2  0
 21 22  1  0
 21 23  1  0
 23 24  2  0
 15 24  1  0
 18 24  1  0
M  END
>  <pIC50>  (422) 
3.09

>  <chembl_id>  (422) 
CHEMBL559683

>  <canonical_smiles>  (422) 
Fc1ccc2N(CCc2c1)C(=O)C(=O)c3c[nH]c4ccc(F)cc34

$$$$
CHEMBL559882
     RDKit          2D

 24 27  0  0  0  0  0  0  0  0999 V2000
   -3.1062   -4.5986    0.0000 C   0  0  0  0  0  0  0  0  0  0  0  0
   -2.3917   -4.1861    0.0000 C   0  0  0  0  0  0  0  0  0  0  0  0
   -2.3917   -3.3611    0.0000 C   0  0  0  0  0  0  0  0  0  0  0  0
   -1.6772   -2.9486    0.0000 C   0  0  0  0  0  0  0  0  0  0  0  0
   -0.9628   -3.3611    0.0000 C   0  0  0  0  0  0  0  0  0  0  0  0
   -0.1781   -3.1062    0.0000 N   0  0  0  0  0  0  0  0  0  0  0  0
    0.3068   -3.7736    0.0000 C   0  0  0  0  0  0  0  0  0  0  0  0
   -0.1781   -4.4410    0.0000 C   0  0  0  0  0  0  0  0  0  0  0  0
   -0.9628   -4.1861    0.0000 C   0  0  0  0  0  0  0  0  0  0  0  0
   -1.6772   -4.5986    0.0000 C   0  0  0  0  0  0  0  0  0  0  0  0
    0.0768   -2.3215    0.0000 C   0  0  0  0  0  0  0  0  0  0  0  0
   -0.4752   -1.7084    0.0000 O   0  0  0  0  0  0  0  0  0  0  0  0
    0.8838   -2.1500    0.0000 C   0  0  0  0  0  0  0  0  0  0  0  0
    1.4358   -2.7631    0.0000 O   0  0  0  0  0  0  0  0  0  0  0  0
    1.1387   -1.3654    0.0000 C   0  0  0  0  0  0  0  0  0  0  0  0
    0.6538   -0.6979    0.0000 C   0  0  0  0  0  0  0  0  0  0  0  0
    1.1387   -0.0305    0.0000 N   0  0  0  0  0  0  0  0  0  0  0  0
    1.9233   -0.2854    0.0000 C   0  0  0  0  0  0  0  0  0  0  0  0
    2.6378    0.1271    0.0000 C   0  0  0  0  0  0  0  0  0  0  0  0
    3.3523   -0.2854    0.0000 C   0  0  0  0  0  0  0  0  0  0  0  0
    3.3523   -1.1104    0.0000 C   0  0  0  0  0  0  0  0  0  0  0  0
    4.0668   -1.5229    0.0000 C   0  0  0  0  0  0  0  0  0  0  0  0
    2.6378   -1.5229    0.0000 C   0  0  0  0  0  0  0  0  0  0  0  0
    1.9233   -1.1104    0.0000 C   0  0  0  0  0  0  0  0  0  0  0  0
  1  2  1  0
  2  3  2  0
  3  4  1  0
  4  5  2  0
  5  6  1  0
  6  7  1  0
  7  8  1  0
  8  9  1  0
  5  9  1  0
  9 10  2  0
  2 10  1  0
  6 11  1  0
 11 12  2  0
 11 13  1  0
 13 14  2  0
 13 15  1  0
 15 16  2  0
 16 17  1  0
 17 18  1  0
 18 19  2  0
 19 20  1  0
 20 21  2  0
 21 22  1  0
 21 23  1  0
 23 24  2  0
 15 24  1  0
 18 24  1  0
M  END
>  <pIC50>  (423) 
3.15

>  <chembl_id>  (423) 
CHEMBL559882

>  <canonical_smiles>  (423) 
Cc1ccc2N(CCc2c1)C(=O)C(=O)c3c[nH]c4ccc(C)cc34

$$$$
CHEMBL560278
     RDKit          2D

 22 25  0  0  0  0  0  0  0  0999 V2000
   -3.1062   -4.5986    0.0000 C   0  0  0  0  0  0  0  0  0  0  0  0
   -2.3917   -4.1861    0.0000 C   0  0  0  0  0  0  0  0  0  0  0  0
   -2.3917   -3.3611    0.0000 C   0  0  0  0  0  0  0  0  0  0  0  0
   -1.6772   -2.9486    0.0000 C   0  0  0  0  0  0  0  0  0  0  0  0
   -0.9628   -3.3611    0.0000 C   0  0  0  0  0  0  0  0  0  0  0  0
   -0.9628   -4.1861    0.0000 C   0  0  0  0  0  0  0  0  0  0  0  0
   -0.1781   -4.4410    0.0000 C   0  0  0  0  0  0  0  0  0  0  0  0
    0.3068   -3.7736    0.0000 C   0  0  0  0  0  0  0  0  0  0  0  0
   -0.1781   -3.1062    0.0000 N   0  0  0  0  0  0  0  0  0  0  0  0
    0.0768   -2.3215    0.0000 C   0  0  0  0  0  0  0  0  0  0  0  0
    0.8838   -2.1500    0.0000 C   0  0  0  0  0  0  0  0  0  0  0  0
    1.1387   -1.3654    0.0000 C   0  0  0  0  0  0  0  0  0  0  0  0
    0.6538   -0.6979    0.0000 C   0  0  0  0  0  0  0  0  0  0  0  0
    1.1387   -0.0305    0.0000 N   0  0  0  0  0  0  0  0  0  0  0  0
    1.9233   -0.2854    0.0000 C   0  0  0  0  0  0  0  0  0  0  0  0
    2.6378    0.1271    0.0000 C   0  0  0  0  0  0  0  0  0  0  0  0
    3.3523   -0.2854    0.0000 C   0  0  0  0  0  0  0  0  0  0  0  0
    3.3523   -1.1104    0.0000 C   0  0  0  0  0  0  0  0  0  0  0  0
    4.0668   -1.5229    0.0000 C   0  0  0  0  0  0  0  0  0  0  0  0
    2.6378   -1.5229    0.0000 C   0  0  0  0  0  0  0  0  0  0  0  0
    1.9233   -1.1104    0.0000 C   0  0  0  0  0  0  0  0  0  0  0  0
   -1.6772   -4.5986    0.0000 C   0  0  0  0  0  0  0  0  0  0  0  0
  1  2  1  0
  2  3  2  0
  3  4  1  0
  4  5  2  0
  5  6  1  0
  6  7  1  0
  7  8  2  0
  8  9  1  0
  5  9  1  0
  9 10  1  0
 10 11  1  0
 11 12  1  0
 12 13  2  0
 13 14  1  0
 14 15  1  0
 15 16  2  0
 16 17  1  0
 17 18  2  0
 18 19  1  0
 18 20  1  0
 20 21  2  0
 12 21  1  0
 15 21  1  0
  6 22  2  0
  2 22  1  0
M  END
>  <pIC50>  (424) 
3.02

>  <chembl_id>  (424) 
CHEMBL560278

>  <canonical_smiles>  (424) 
Cc1ccc2c(ccn2CCc3c[nH]c4ccc(C)cc34)c1

$$$$
CHEMBL560393
     RDKit          2D

 23 26  0  0  0  0  0  0  0  0999 V2000
    6.9960   -1.2636    0.0000 C   0  0  0  0  0  0  0  0  0  0  0  0
    6.2815   -0.8511    0.0000 C   0  0  0  0  0  0  0  0  0  0  0  0
    5.5670   -1.2636    0.0000 C   0  0  0  0  0  0  0  0  0  0  0  0
    4.8525   -0.8511    0.0000 N   0  0  0  0  0  0  0  0  0  0  0  0
    4.0989   -1.1867    0.0000 C   0  0  0  0  0  0  0  0  0  0  0  0
    3.5468   -0.5736    0.0000 C   0  0  0  0  0  0  0  0  0  0  0  0
    3.9593    0.1409    0.0000 C   0  0  0  0  0  0  0  0  0  0  0  0
    3.7044    0.9255    0.0000 C   0  0  0  0  0  0  0  0  0  0  0  0
    4.2564    1.5386    0.0000 C   0  0  0  0  0  0  0  0  0  0  0  0
    5.0634    1.3671    0.0000 C   0  0  0  0  0  0  0  0  0  0  0  0
    5.3183    0.5824    0.0000 C   0  0  0  0  0  0  0  0  0  0  0  0
    4.7663   -0.0307    0.0000 C   0  0  0  0  0  0  0  0  0  0  0  0
    7.7104   -0.8511    0.0000 C   0  0  0  0  0  0  0  0  0  0  0  0
    8.4249   -1.2636    0.0000 C   0  0  0  0  0  0  0  0  0  0  0  0
    9.1394   -0.8511    0.0000 N   0  0  0  0  0  0  0  0  0  0  0  0
    9.2256   -0.0307    0.0000 C   0  0  0  0  0  0  0  0  0  0  0  0
   10.0326    0.1409    0.0000 C   0  0  0  0  0  0  0  0  0  0  0  0
   10.4451   -0.5736    0.0000 C   0  0  0  0  0  0  0  0  0  0  0  0
   11.2521   -0.7451    0.0000 C   0  0  0  0  0  0  0  0  0  0  0  0
   11.5070   -1.5298    0.0000 C   0  0  0  0  0  0  0  0  0  0  0  0
   10.9550   -2.1428    0.0000 C   0  0  0  0  0  0  0  0  0  0  0  0
   10.1480   -1.9713    0.0000 C   0  0  0  0  0  0  0  0  0  0  0  0
    9.8930   -1.1867    0.0000 C   0  0  0  0  0  0  0  0  0  0  0  0
  1  2  1  0
  2  3  1  0
  3  4  1  0
  4  5  1  0
  5  6  2  0
  6  7  1  0
  7  8  2  0
  8  9  1  0
  9 10  2  0
 10 11  1  0
 11 12  2  0
  4 12  1  0
  7 12  1  0
  1 13  1  0
 13 14  1  0
 14 15  1  0
 15 16  1  0
 16 17  2  0
 17 18  1  0
 18 19  2  0
 19 20  1  0
 20 21  2  0
 21 22  1  0
 22 23  2  0
 15 23  1  0
 18 23  1  0
M  END
>  <pIC50>  (425) 
3.02

>  <chembl_id>  (425) 
CHEMBL560393

>  <canonical_smiles>  (425) 
C(CCn1ccc2ccccc12)CCn3ccc4ccccc34

$$$$
CHEMBL561136
     RDKit          2D

 23 26  0  0  0  0  0  0  0  0999 V2000
   -3.1062   -4.5986    0.0000 C   0  0  0  0  0  0  0  0  0  0  0  0
   -2.3917   -4.1861    0.0000 C   0  0  0  0  0  0  0  0  0  0  0  0
   -2.3917   -3.3611    0.0000 C   0  0  0  0  0  0  0  0  0  0  0  0
   -1.6772   -2.9486    0.0000 C   0  0  0  0  0  0  0  0  0  0  0  0
   -0.9628   -3.3611    0.0000 C   0  0  0  0  0  0  0  0  0  0  0  0
   -0.1781   -3.1062    0.0000 N   0  0  0  0  0  0  0  0  0  0  0  0
    0.3068   -3.7736    0.0000 C   0  0  0  0  0  0  0  0  0  0  0  0
   -0.1781   -4.4410    0.0000 C   0  0  0  0  0  0  0  0  0  0  0  0
   -0.9628   -4.1861    0.0000 C   0  0  0  0  0  0  0  0  0  0  0  0
   -1.6772   -4.5986    0.0000 C   0  0  0  0  0  0  0  0  0  0  0  0
    0.0768   -2.3215    0.0000 C   0  0  0  0  0  0  0  0  0  0  0  0
   -0.4752   -1.7084    0.0000 O   0  0  0  0  0  0  0  0  0  0  0  0
    0.8838   -2.1500    0.0000 C   0  0  0  0  0  0  0  0  0  0  0  0
    1.4358   -2.7631    0.0000 O   0  0  0  0  0  0  0  0  0  0  0  0
    1.1387   -1.3654    0.0000 C   0  0  0  0  0  0  0  0  0  0  0  0
    0.6538   -0.6979    0.0000 C   0  0  0  0  0  0  0  0  0  0  0  0
    1.1387   -0.0305    0.0000 N   0  0  0  0  0  0  0  0  0  0  0  0
    1.9233   -0.2854    0.0000 C   0  0  0  0  0  0  0  0  0  0  0  0
    2.6378    0.1271    0.0000 C   0  0  0  0  0  0  0  0  0  0  0  0
    3.3523   -0.2854    0.0000 C   0  0  0  0  0  0  0  0  0  0  0  0
    3.3523   -1.1104    0.0000 C   0  0  0  0  0  0  0  0  0  0  0  0
    2.6378   -1.5229    0.0000 C   0  0  0  0  0  0  0  0  0  0  0  0
    1.9233   -1.1104    0.0000 C   0  0  0  0  0  0  0  0  0  0  0  0
  1  2  1  0
  2  3  2  0
  3  4  1  0
  4  5  2  0
  5  6  1  0
  6  7  1  0
  7  8  1  0
  8  9  1  0
  5  9  1  0
  9 10  2  0
  2 10  1  0
  6 11  1  0
 11 12  2  0
 11 13  1  0
 13 14  2  0
 13 15  1  0
 15 16  2  0
 16 17  1  0
 17 18  1  0
 18 19  2  0
 19 20  1  0
 20 21  2  0
 21 22  1  0
 22 23  2  0
 15 23  1  0
 18 23  1  0
M  END
>  <pIC50>  (426) 
3.04

>  <chembl_id>  (426) 
CHEMBL561136

>  <canonical_smiles>  (426) 
Cc1ccc2N(CCc2c1)C(=O)C(=O)c3c[nH]c4ccccc34

$$$$
CHEMBL562198
     RDKit          2D

 23 26  0  0  0  0  0  0  0  0999 V2000
    7.6056    0.1488    0.0000 C   0  0  0  0  0  0  0  0  0  0  0  0
    6.8912   -0.2637    0.0000 C   0  0  0  0  0  0  0  0  0  0  0  0
    6.8912   -1.0887    0.0000 C   0  0  0  0  0  0  0  0  0  0  0  0
    6.1767   -1.5012    0.0000 C   0  0  0  0  0  0  0  0  0  0  0  0
    5.4622   -1.0887    0.0000 C   0  0  0  0  0  0  0  0  0  0  0  0
    4.6776   -1.3436    0.0000 N   0  0  0  0  0  0  0  0  0  0  0  0
    4.1927   -0.6762    0.0000 C   0  0  0  0  0  0  0  0  0  0  0  0
    4.6776   -0.0087    0.0000 C   0  0  0  0  0  0  0  0  0  0  0  0
    4.4227    0.7759    0.0000 C   0  0  0  0  0  0  0  0  0  0  0  0
    3.6157    0.9474    0.0000 O   0  0  0  0  0  0  0  0  0  0  0  0
    4.9747    1.3890    0.0000 C   0  0  0  0  0  0  0  0  0  0  0  0
    5.7817    1.2175    0.0000 O   0  0  0  0  0  0  0  0  0  0  0  0
    4.7198    2.1736    0.0000 N   0  0  0  0  0  0  0  0  0  0  0  0
    3.9351    2.4286    0.0000 C   0  0  0  0  0  0  0  0  0  0  0  0
    3.9351    3.2536    0.0000 C   0  0  0  0  0  0  0  0  0  0  0  0
    4.7198    3.5085    0.0000 C   0  0  0  0  0  0  0  0  0  0  0  0
    5.0553    4.2622    0.0000 C   0  0  0  0  0  0  0  0  0  0  0  0
    5.8758    4.3484    0.0000 C   0  0  0  0  0  0  0  0  0  0  0  0
    6.3607    3.6810    0.0000 C   0  0  0  0  0  0  0  0  0  0  0  0
    6.0252    2.9273    0.0000 C   0  0  0  0  0  0  0  0  0  0  0  0
    5.2047    2.8411    0.0000 C   0  0  0  0  0  0  0  0  0  0  0  0
    5.4622   -0.2637    0.0000 C   0  0  0  0  0  0  0  0  0  0  0  0
    6.1767    0.1488    0.0000 C   0  0  0  0  0  0  0  0  0  0  0  0
  1  2  1  0
  2  3  2  0
  3  4  1  0
  4  5  2  0
  5  6  1  0
  6  7  1  0
  7  8  2  0
  8  9  1  0
  9 10  2  0
  9 11  1  0
 11 12  2  0
 11 13  1  0
 13 14  1  0
 14 15  1  0
 15 16  1  0
 16 17  2  0
 17 18  1  0
 18 19  2  0
 19 20  1  0
 20 21  2  0
 13 21  1  0
 16 21  1  0
  8 22  1  0
  5 22  1  0
 22 23  2  0
  2 23  1  0
M  END
>  <pIC50>  (427) 
3.02

>  <chembl_id>  (427) 
CHEMBL562198

>  <canonical_smiles>  (427) 
Cc1ccc2[nH]cc(C(=O)C(=O)N3CCc4ccccc34)c2c1

$$$$
CHEMBL563948
     RDKit          2D

 22 25  0  0  0  0  0  0  0  0999 V2000
   -3.1062   -4.5986    0.0000 F   0  0  0  0  0  0  0  0  0  0  0  0
   -2.3917   -4.1861    0.0000 C   0  0  0  0  0  0  0  0  0  0  0  0
   -2.3917   -3.3611    0.0000 C   0  0  0  0  0  0  0  0  0  0  0  0
   -1.6772   -2.9486    0.0000 C   0  0  0  0  0  0  0  0  0  0  0  0
   -0.9628   -3.3611    0.0000 C   0  0  0  0  0  0  0  0  0  0  0  0
   -0.9628   -4.1861    0.0000 C   0  0  0  0  0  0  0  0  0  0  0  0
   -0.1781   -4.4410    0.0000 C   0  0  0  0  0  0  0  0  0  0  0  0
    0.3068   -3.7736    0.0000 C   0  0  0  0  0  0  0  0  0  0  0  0
   -0.1781   -3.1062    0.0000 N   0  0  0  0  0  0  0  0  0  0  0  0
    0.0768   -2.3215    0.0000 C   0  0  0  0  0  0  0  0  0  0  0  0
    0.8838   -2.1500    0.0000 C   0  0  0  0  0  0  0  0  0  0  0  0
    1.1387   -1.3654    0.0000 C   0  0  0  0  0  0  0  0  0  0  0  0
    0.6538   -0.6979    0.0000 C   0  0  0  0  0  0  0  0  0  0  0  0
    1.1387   -0.0305    0.0000 N   0  0  0  0  0  0  0  0  0  0  0  0
    1.9233   -0.2854    0.0000 C   0  0  0  0  0  0  0  0  0  0  0  0
    2.6378    0.1271    0.0000 C   0  0  0  0  0  0  0  0  0  0  0  0
    3.3523   -0.2854    0.0000 C   0  0  0  0  0  0  0  0  0  0  0  0
    3.3523   -1.1104    0.0000 C   0  0  0  0  0  0  0  0  0  0  0  0
    4.0668   -1.5229    0.0000 F   0  0  0  0  0  0  0  0  0  0  0  0
    2.6378   -1.5229    0.0000 C   0  0  0  0  0  0  0  0  0  0  0  0
    1.9233   -1.1104    0.0000 C   0  0  0  0  0  0  0  0  0  0  0  0
   -1.6772   -4.5986    0.0000 C   0  0  0  0  0  0  0  0  0  0  0  0
  1  2  1  0
  2  3  2  0
  3  4  1  0
  4  5  2  0
  5  6  1  0
  6  7  1  0
  7  8  2  0
  8  9  1  0
  5  9  1  0
  9 10  1  0
 10 11  1  0
 11 12  1  0
 12 13  2  0
 13 14  1  0
 14 15  1  0
 15 16  2  0
 16 17  1  0
 17 18  2  0
 18 19  1  0
 18 20  1  0
 20 21  2  0
 12 21  1  0
 15 21  1  0
  6 22  2  0
  2 22  1  0
M  END
>  <pIC50>  (428) 
3.05

>  <chembl_id>  (428) 
CHEMBL563948

>  <canonical_smiles>  (428) 
Fc1ccc2c(ccn2CCc3c[nH]c4ccc(F)cc34)c1

$$$$
CHEMBL569847
     RDKit          2D

 21 24  0  0  0  0  0  0  0  0999 V2000
    7.6056    0.1488    0.0000 C   0  0  0  0  0  0  0  0  0  0  0  0
    6.8912   -0.2637    0.0000 C   0  0  0  0  0  0  0  0  0  0  0  0
    6.8912   -1.0887    0.0000 C   0  0  0  0  0  0  0  0  0  0  0  0
    6.1767   -1.5012    0.0000 C   0  0  0  0  0  0  0  0  0  0  0  0
    5.4622   -1.0887    0.0000 C   0  0  0  0  0  0  0  0  0  0  0  0
    4.6776   -1.3436    0.0000 N   0  0  0  0  0  0  0  0  0  0  0  0
    4.1927   -0.6762    0.0000 C   0  0  0  0  0  0  0  0  0  0  0  0
    4.6776   -0.0087    0.0000 C   0  0  0  0  0  0  0  0  0  0  0  0
    4.4227    0.7759    0.0000 C   0  0  0  0  0  0  0  0  0  0  0  0
    4.9747    1.3890    0.0000 C   0  0  0  0  0  0  0  0  0  0  0  0
    4.7198    2.1736    0.0000 N   0  0  0  0  0  0  0  0  0  0  0  0
    3.9351    2.4286    0.0000 C   0  0  0  0  0  0  0  0  0  0  0  0
    3.9351    3.2536    0.0000 C   0  0  0  0  0  0  0  0  0  0  0  0
    4.7198    3.5085    0.0000 C   0  0  0  0  0  0  0  0  0  0  0  0
    5.0553    4.2622    0.0000 C   0  0  0  0  0  0  0  0  0  0  0  0
    5.8758    4.3484    0.0000 C   0  0  0  0  0  0  0  0  0  0  0  0
    6.3607    3.6810    0.0000 C   0  0  0  0  0  0  0  0  0  0  0  0
    6.0252    2.9273    0.0000 C   0  0  0  0  0  0  0  0  0  0  0  0
    5.2047    2.8411    0.0000 C   0  0  0  0  0  0  0  0  0  0  0  0
    5.4622   -0.2637    0.0000 C   0  0  0  0  0  0  0  0  0  0  0  0
    6.1767    0.1488    0.0000 C   0  0  0  0  0  0  0  0  0  0  0  0
  1  2  1  0
  2  3  2  0
  3  4  1  0
  4  5  2  0
  5  6  1  0
  6  7  1  0
  7  8  2  0
  8  9  1  0
  9 10  1  0
 10 11  1  0
 11 12  1  0
 12 13  2  0
 13 14  1  0
 14 15  2  0
 15 16  1  0
 16 17  2  0
 17 18  1  0
 18 19  2  0
 11 19  1  0
 14 19  1  0
  8 20  1  0
  5 20  1  0
 20 21  2  0
  2 21  1  0
M  END
>  <pIC50>  (429) 
3.40

>  <chembl_id>  (429) 
CHEMBL569847

>  <canonical_smiles>  (429) 
Cc1ccc2[nH]cc(CCn3ccc4ccccc34)c2c1

$$$$
CHEMBL574737
     RDKit          2D

 36 43  0  0  1  0  0  0  0  0999 V2000
    3.2996   -1.6146    0.0000 C   0  0  0  0  0  0  0  0  0  0  0  0
    2.6173   -1.1508    0.0000 N   0  0  0  0  0  0  0  0  0  0  0  0
    2.6779   -0.3281    0.0000 C   0  0  0  0  0  0  0  0  0  0  0  0
    3.4344    0.0843    0.0000 C   0  0  0  0  0  0  0  0  0  0  0  0
    3.5338    1.0055    0.0000 C   0  0  0  0  0  0  0  0  0  0  0  0
    2.7827    1.0942    0.0000 O   0  0  0  0  0  0  0  0  0  0  0  0
    2.0391    1.0802    0.0000 C   0  0  0  0  0  0  0  0  0  0  0  0
    1.2157    1.0289    0.0000 C   0  0  0  0  0  0  0  0  0  0  0  0
    1.9975    0.1848    0.0000 C   0  0  0  0  0  0  0  0  0  0  0  0
    1.2508   -0.1660    0.0000 O   0  0  0  0  0  0  0  0  0  0  0  0
    1.1813   -0.9880    0.0000 C   0  0  0  0  0  0  0  0  0  0  0  0
    1.8844    1.9773    0.0000 N   0  0  0  0  0  0  0  0  0  0  0  0
    1.0836    2.2889    0.0000 C   0  0  0  0  0  0  0  0  0  0  0  0
    0.3426    1.9266    0.0000 C   0  0  0  0  0  0  0  0  0  0  0  0
   -0.3418    2.3871    0.0000 C   0  0  0  0  0  0  0  0  0  0  0  0
   -0.2851    3.2102    0.0000 C   0  0  0  0  0  0  0  0  0  0  0  0
    0.4560    3.5726    0.0000 C   0  0  0  0  0  0  0  0  0  0  0  0
    1.1404    3.1119    0.0000 C   0  0  0  0  0  0  0  0  0  0  0  0
    1.9682    3.3506    0.0000 C   0  0  0  0  0  0  0  0  0  0  0  0
    2.4182    4.0583    0.0000 C   0  0  0  0  0  0  0  0  0  0  0  0
    2.1610    4.8421    0.0000 C   0  0  0  0  0  0  0  0  0  0  0  0
    1.3756    5.0947    0.0000 O   0  0  0  0  0  0  0  0  0  0  0  0
    2.8268    5.3290    0.0000 N   0  0  0  0  0  0  0  0  0  0  0  0
    3.4958    4.8463    0.0000 C   0  0  0  0  0  0  0  0  0  0  0  0
    4.2795    5.1036    0.0000 O   0  0  0  0  0  0  0  0  0  0  0  0
    3.2432    4.0608    0.0000 C   0  0  0  0  0  0  0  0  0  0  0  0
    3.7053    3.3236    0.0000 C   0  0  0  0  0  0  0  0  0  0  0  0
    4.5325    3.0981    0.0000 C   0  0  0  0  0  0  0  0  0  0  0  0
    5.2081    3.5714    0.0000 C   0  0  0  0  0  0  0  0  0  0  0  0
    5.9559    3.2228    0.0000 C   0  0  0  0  0  0  0  0  0  0  0  0
    6.0279    2.4010    0.0000 C   0  0  0  0  0  0  0  0  0  0  0  0
    5.3522    1.9278    0.0000 C   0  0  0  0  0  0  0  0  0  0  0  0
    4.6045    2.2762    0.0000 C   0  0  0  0  0  0  0  0  0  0  0  0
    3.7854    1.9084    0.0000 N   0  0  0  0  0  0  0  0  0  0  0  0
    3.2637    2.6117    0.0000 C   0  0  0  0  0  0  0  0  0  0  0  0
    2.4189    2.6517    0.0000 C   0  0  0  0  0  0  0  0  0  0  0  0
  1  2  1  0
  3  2  1  1
  3  4  1  0
  5  4  1  1
  5  6  1  0
  7  6  1  0
  7  8  1  6
  9  7  1  0
  9  3  1  0
  9 10  1  1
 10 11  1  0
  7 12  1  0
 12 13  1  0
 13 14  2  0
 14 15  1  0
 15 16  2  0
 16 17  1  0
 17 18  2  0
 13 18  1  0
 18 19  1  0
 19 20  1  0
 21 20  1  0
 21 22  1  6
 21 23  1  0
 23 24  1  0
 24 25  2  0
 24 26  1  0
 20 26  2  0
 26 27  1  0
 27 28  1  0
 28 29  2  0
 29 30  1  0
 30 31  2  0
 31 32  1  0
 32 33  2  0
 28 33  1  0
 33 34  1  0
  5 34  1  0
 34 35  1  0
 27 35  2  0
 35 36  1  0
 12 36  1  0
 19 36  2  0
M  END
>  <pIC50>  (430) 
7.52

>  <chembl_id>  (430) 
CHEMBL574737

>  <canonical_smiles>  (430) 
CN[C@@H]1C[C@H]2O[C@@](C)([C@@H]1OC)n3c4ccccc4c5c6[C@H](O)NC(=O)c6c7c8ccccc8n2c7c35

$$$$
CHEMBL83980
     RDKit          2D

 25 27  0  0  0  0  0  0  0  0999 V2000
    0.4730   -0.0110    0.0000 C   0  0  0  0  0  0  0  0  0  0  0  0
   -0.3340   -0.1826    0.0000 C   0  0  0  0  0  0  0  0  0  0  0  0
   -0.5889   -0.9672    0.0000 C   0  0  0  0  0  0  0  0  0  0  0  0
   -0.8860    0.4305    0.0000 N   0  0  0  0  0  0  0  0  0  0  0  0
   -1.7065    0.3443    0.0000 C   0  0  0  0  0  0  0  0  0  0  0  0
   -2.0420    1.0980    0.0000 N   0  0  0  0  0  0  0  0  0  0  0  0
   -1.4289    1.6500    0.0000 C   0  0  0  0  0  0  0  0  0  0  0  0
   -1.4289    2.4750    0.0000 C   0  0  0  0  0  0  0  0  0  0  0  0
   -2.1434    2.8875    0.0000 N   0  0  0  0  0  0  0  0  0  0  0  0
   -2.8579    2.4750    0.0000 C   0  0  0  0  0  0  0  0  0  0  0  0
   -3.5724    2.8875    0.0000 C   0  0  0  0  0  0  0  0  0  0  0  0
   -4.2868    2.4750    0.0000 C   0  0  0  0  0  0  0  0  0  0  0  0
   -5.0013    2.8875    0.0000 C   0  0  0  0  0  0  0  0  0  0  0  0
   -5.0013    3.7125    0.0000 C   0  0  0  0  0  0  0  0  0  0  0  0
   -4.2868    4.1250    0.0000 C   0  0  0  0  0  0  0  0  0  0  0  0
   -3.5724    3.7125    0.0000 C   0  0  0  0  0  0  0  0  0  0  0  0
   -0.7145    2.8875    0.0000 N   0  0  0  0  0  0  0  0  0  0  0  0
    0.0000    2.4750    0.0000 C   0  0  0  0  0  0  0  0  0  0  0  0
    0.7145    2.8875    0.0000 N   0  0  0  0  0  0  0  0  0  0  0  0
    1.4289    2.4750    0.0000 C   0  0  0  0  0  0  0  0  0  0  0  0
    2.1434    2.8875    0.0000 C   0  0  0  0  0  0  0  0  0  0  0  0
    2.8579    2.4750    0.0000 C   0  0  0  0  0  0  0  0  0  0  0  0
    3.5724    2.8875    0.0000 O   0  0  0  0  0  0  0  0  0  0  0  0
    0.0000    1.6500    0.0000 N   0  0  0  0  0  0  0  0  0  0  0  0
   -0.7145    1.2375    0.0000 C   0  0  0  0  0  0  0  0  0  0  0  0
  1  2  1  0
  2  3  1  0
  2  4  1  0
  4  5  1  0
  5  6  2  0
  6  7  1  0
  7  8  2  0
  8  9  1  0
  9 10  1  0
 10 11  1  0
 11 12  2  0
 12 13  1  0
 13 14  2  0
 14 15  1  0
 15 16  2  0
 11 16  1  0
  8 17  1  0
 17 18  2  0
 18 19  1  0
 19 20  1  0
 20 21  1  0
 21 22  1  0
 22 23  1  0
 18 24  1  0
 24 25  2  0
  4 25  1  0
  7 25  1  0
M  END
>  <pIC50>  (431) 
6.10

>  <chembl_id>  (431) 
CHEMBL83980

>  <canonical_smiles>  (431) 
CC(C)n1cnc2c(NCc3ccccc3)nc(NCCCO)nc12

$$$$
CHEMBL84140
     RDKit          2D

 18 19  0  0  0  0  0  0  0  0999 V2000
   -0.5889   -0.9672    0.0000 C   0  0  0  0  0  0  0  0  0  0  0  0
   -0.3340   -0.1826    0.0000 C   0  0  0  0  0  0  0  0  0  0  0  0
    0.4730   -0.0110    0.0000 C   0  0  0  0  0  0  0  0  0  0  0  0
   -0.8860    0.4305    0.0000 N   0  0  0  0  0  0  0  0  0  0  0  0
   -1.7065    0.3443    0.0000 C   0  0  0  0  0  0  0  0  0  0  0  0
   -2.0420    1.0980    0.0000 N   0  0  0  0  0  0  0  0  0  0  0  0
   -1.4289    1.6500    0.0000 C   0  0  0  0  0  0  0  0  0  0  0  0
   -1.4289    2.4750    0.0000 C   0  0  0  0  0  0  0  0  0  0  0  0
   -2.1434    2.8875    0.0000 N   0  0  0  0  0  0  0  0  0  0  0  0
   -0.7145    2.8875    0.0000 N   0  0  0  0  0  0  0  0  0  0  0  0
    0.0000    2.4750    0.0000 C   0  0  0  0  0  0  0  0  0  0  0  0
    0.7145    2.8875    0.0000 N   0  0  0  0  0  0  0  0  0  0  0  0
    1.4289    2.4750    0.0000 C   0  0  0  0  0  0  0  0  0  0  0  0
    2.1434    2.8875    0.0000 C   0  0  0  0  0  0  0  0  0  0  0  0
    2.8579    2.4750    0.0000 C   0  0  0  0  0  0  0  0  0  0  0  0
    3.5724    2.8875    0.0000 O   0  0  0  0  0  0  0  0  0  0  0  0
    0.0000    1.6500    0.0000 N   0  0  0  0  0  0  0  0  0  0  0  0
   -0.7145    1.2375    0.0000 C   0  0  0  0  0  0  0  0  0  0  0  0
  1  2  1  0
  2  3  1  0
  2  4  1  0
  4  5  1  0
  5  6  2  0
  6  7  1  0
  7  8  2  0
  8  9  1  0
  8 10  1  0
 10 11  2  0
 11 12  1  0
 12 13  1  0
 13 14  1  0
 14 15  1  0
 15 16  1  0
 11 17  1  0
 17 18  2  0
  4 18  1  0
  7 18  1  0
M  END
>  <pIC50>  (432) 
5.62

>  <chembl_id>  (432) 
CHEMBL84140

>  <canonical_smiles>  (432) 
CC(C)n1cnc2c(N)nc(NCCCO)nc12

$$$$
CHEMBL84436
     RDKit          2D

 25 27  0  0  1  0  0  0  0  0999 V2000
    4.7812    4.4104    0.0000 C   0  0  0  0  0  0  0  0  0  0  0  0
    4.7812    3.5854    0.0000 C   0  0  0  0  0  0  0  0  0  0  0  0
    5.4957    3.1729    0.0000 O   0  0  0  0  0  0  0  0  0  0  0  0
    4.0668    3.1729    0.0000 C   0  0  0  0  0  0  0  0  0  0  0  0
    4.0668    2.3479    0.0000 N   0  0  0  0  0  0  0  0  0  0  0  0
    3.3523    1.9354    0.0000 C   0  0  0  0  0  0  0  0  0  0  0  0
    3.3523    1.1104    0.0000 N   0  0  0  0  0  0  0  0  0  0  0  0
    2.6378    0.6979    0.0000 C   0  0  0  0  0  0  0  0  0  0  0  0
    2.6378   -0.1271    0.0000 N   0  0  0  0  0  0  0  0  0  0  0  0
    3.3523   -0.5396    0.0000 C   0  0  0  0  0  0  0  0  0  0  0  0
    3.3523   -1.3646    0.0000 C   0  0  0  0  0  0  0  0  0  0  0  0
    4.0668   -1.7771    0.0000 C   0  0  0  0  0  0  0  0  0  0  0  0
    4.0668   -2.6021    0.0000 C   0  0  0  0  0  0  0  0  0  0  0  0
    3.3523   -3.0146    0.0000 C   0  0  0  0  0  0  0  0  0  0  0  0
    2.6378   -2.6021    0.0000 C   0  0  0  0  0  0  0  0  0  0  0  0
    2.6378   -1.7771    0.0000 C   0  0  0  0  0  0  0  0  0  0  0  0
    1.9233    1.1104    0.0000 C   0  0  0  0  0  0  0  0  0  0  0  0
    1.1387    0.8555    0.0000 N   0  0  0  0  0  0  0  0  0  0  0  0
    0.6538    1.5229    0.0000 C   0  0  0  0  0  0  0  0  0  0  0  0
    1.1387    2.1904    0.0000 N   0  0  0  0  0  0  0  0  0  0  0  0
    0.8838    2.9750    0.0000 C   0  0  0  0  0  0  0  0  0  0  0  0
    1.4358    3.5881    0.0000 C   0  0  0  0  0  0  0  0  0  0  0  0
    0.0768    3.1465    0.0000 C   0  0  0  0  0  0  0  0  0  0  0  0
    1.9233    1.9354    0.0000 C   0  0  0  0  0  0  0  0  0  0  0  0
    2.6378    2.3479    0.0000 N   0  0  0  0  0  0  0  0  0  0  0  0
  2  1  1  1
  2  3  1  0
  2  4  1  0
  4  5  1  0
  5  6  1  0
  6  7  2  0
  7  8  1  0
  8  9  1  0
  9 10  1  0
 10 11  1  0
 11 12  2  0
 12 13  1  0
 13 14  2  0
 14 15  1  0
 15 16  2  0
 11 16  1  0
  8 17  2  0
 17 18  1  0
 18 19  2  0
 19 20  1  0
 20 21  1  0
 21 22  1  0
 21 23  1  0
 20 24  1  0
 17 24  1  0
 24 25  2  0
  6 25  1  0
M  END
>  <pIC50>  (433) 
6.70

>  <chembl_id>  (433) 
CHEMBL84436

>  <canonical_smiles>  (433) 
C[C@@H](O)CNc1nc(NCc2ccccc2)c3ncn(C(C)C)c3n1

$$$$
CHEMBL84944
     RDKit          2D

 28 30  0  0  0  0  0  0  0  0999 V2000
    4.7812    4.4104    0.0000 C   0  0  0  0  0  0  0  0  0  0  0  0
    4.7812    3.5854    0.0000 C   0  0  0  0  0  0  0  0  0  0  0  0
    5.4957    3.1729    0.0000 C   0  0  0  0  0  0  0  0  0  0  0  0
    4.0668    3.1729    0.0000 C   0  0  0  0  0  0  0  0  0  0  0  0
    3.3523    3.5854    0.0000 C   0  0  0  0  0  0  0  0  0  0  0  0
    2.6378    3.1729    0.0000 O   0  0  0  0  0  0  0  0  0  0  0  0
    4.0668    2.3479    0.0000 N   0  0  0  0  0  0  0  0  0  0  0  0
    3.3523    1.9354    0.0000 C   0  0  0  0  0  0  0  0  0  0  0  0
    3.3523    1.1104    0.0000 N   0  0  0  0  0  0  0  0  0  0  0  0
    2.6378    0.6979    0.0000 C   0  0  0  0  0  0  0  0  0  0  0  0
    2.6378   -0.1271    0.0000 N   0  0  0  0  0  0  0  0  0  0  0  0
    3.3523   -0.5396    0.0000 C   0  0  0  0  0  0  0  0  0  0  0  0
    3.3523   -1.3646    0.0000 C   0  0  0  0  0  0  0  0  0  0  0  0
    4.0668   -1.7771    0.0000 C   0  0  0  0  0  0  0  0  0  0  0  0
    4.0668   -2.6021    0.0000 C   0  0  0  0  0  0  0  0  0  0  0  0
    3.3523   -3.0146    0.0000 C   0  0  0  0  0  0  0  0  0  0  0  0
    2.6378   -2.6021    0.0000 C   0  0  0  0  0  0  0  0  0  0  0  0
    1.9233   -3.0146    0.0000 O   0  0  0  0  0  0  0  0  0  0  0  0
    2.6378   -1.7771    0.0000 C   0  0  0  0  0  0  0  0  0  0  0  0
    1.9233    1.1104    0.0000 C   0  0  0  0  0  0  0  0  0  0  0  0
    1.1387    0.8555    0.0000 N   0  0  0  0  0  0  0  0  0  0  0  0
    0.6538    1.5229    0.0000 C   0  0  0  0  0  0  0  0  0  0  0  0
    1.1387    2.1904    0.0000 N   0  0  0  0  0  0  0  0  0  0  0  0
    0.8838    2.9750    0.0000 C   0  0  0  0  0  0  0  0  0  0  0  0
    1.4358    3.5881    0.0000 C   0  0  0  0  0  0  0  0  0  0  0  0
    0.0768    3.1465    0.0000 C   0  0  0  0  0  0  0  0  0  0  0  0
    1.9233    1.9354    0.0000 C   0  0  0  0  0  0  0  0  0  0  0  0
    2.6378    2.3479    0.0000 N   0  0  0  0  0  0  0  0  0  0  0  0
  1  2  1  0
  2  3  1  0
  2  4  1  0
  4  5  1  0
  5  6  1  0
  4  7  1  0
  7  8  1  0
  8  9  2  0
  9 10  1  0
 10 11  1  0
 11 12  1  0
 12 13  1  0
 13 14  2  0
 14 15  1  0
 15 16  2  0
 16 17  1  0
 17 18  1  0
 17 19  2  0
 13 19  1  0
 10 20  2  0
 20 21  1  0
 21 22  2  0
 22 23  1  0
 23 24  1  0
 24 25  1  0
 24 26  1  0
 23 27  1  0
 20 27  1  0
 27 28  2  0
  8 28  1  0
M  END
>  <pIC50>  (434) 
7.52

>  <chembl_id>  (434) 
CHEMBL84944

>  <canonical_smiles>  (434) 
CC(C)C(CO)Nc1nc(NCc2cccc(O)c2)c3ncn(C(C)C)c3n1

$$$$
CHEMBL85015
     RDKit          2D

 20 22  0  0  0  0  0  0  0  0999 V2000
    0.0768   -2.3215    0.0000 C   0  0  0  0  0  0  0  0  0  0  0  0
    0.8838   -2.1500    0.0000 C   0  0  0  0  0  0  0  0  0  0  0  0
    1.4358   -2.7631    0.0000 C   0  0  0  0  0  0  0  0  0  0  0  0
    1.1387   -1.3654    0.0000 N   0  0  0  0  0  0  0  0  0  0  0  0
    0.6538   -0.6979    0.0000 C   0  0  0  0  0  0  0  0  0  0  0  0
    1.1387   -0.0305    0.0000 N   0  0  0  0  0  0  0  0  0  0  0  0
    1.9233   -0.2854    0.0000 C   0  0  0  0  0  0  0  0  0  0  0  0
    2.6378    0.1271    0.0000 C   0  0  0  0  0  0  0  0  0  0  0  0
    2.6378    0.9521    0.0000 N   0  0  0  0  0  0  0  0  0  0  0  0
    1.9233    1.3646    0.0000 C   0  0  0  0  0  0  0  0  0  0  0  0
    1.9233    2.1896    0.0000 C   0  0  0  0  0  0  0  0  0  0  0  0
    1.2089    2.6021    0.0000 C   0  0  0  0  0  0  0  0  0  0  0  0
    1.2089    3.4271    0.0000 C   0  0  0  0  0  0  0  0  0  0  0  0
    1.9233    3.8396    0.0000 C   0  0  0  0  0  0  0  0  0  0  0  0
    2.6378    3.4271    0.0000 C   0  0  0  0  0  0  0  0  0  0  0  0
    2.6378    2.6021    0.0000 C   0  0  0  0  0  0  0  0  0  0  0  0
    3.3523   -0.2854    0.0000 N   0  0  0  0  0  0  0  0  0  0  0  0
    3.3523   -1.1104    0.0000 C   0  0  0  0  0  0  0  0  0  0  0  0
    2.6378   -1.5229    0.0000 N   0  0  0  0  0  0  0  0  0  0  0  0
    1.9233   -1.1104    0.0000 C   0  0  0  0  0  0  0  0  0  0  0  0
  1  2  1  0
  2  3  1  0
  2  4  1  0
  4  5  1  0
  5  6  2  0
  6  7  1  0
  7  8  2  0
  8  9  1  0
  9 10  1  0
 10 11  1  0
 11 12  2  0
 12 13  1  0
 13 14  2  0
 14 15  1  0
 15 16  2  0
 11 16  1  0
  8 17  1  0
 17 18  2  0
 18 19  1  0
 19 20  2  0
  4 20  1  0
  7 20  1  0
M  END
>  <pIC50>  (435) 
5.35

>  <chembl_id>  (435) 
CHEMBL85015

>  <canonical_smiles>  (435) 
CC(C)n1cnc2c(NCc3ccccc3)ncnc12

$$$$
CHEMBL86066
     RDKit          2D

 24 26  0  0  0  0  0  0  0  0999 V2000
    1.4358   -2.7631    0.0000 C   0  0  0  0  0  0  0  0  0  0  0  0
    0.8838   -2.1500    0.0000 C   0  0  0  0  0  0  0  0  0  0  0  0
    0.0768   -2.3215    0.0000 C   0  0  0  0  0  0  0  0  0  0  0  0
    1.1387   -1.3654    0.0000 N   0  0  0  0  0  0  0  0  0  0  0  0
    0.6538   -0.6979    0.0000 C   0  0  0  0  0  0  0  0  0  0  0  0
    1.1387   -0.0305    0.0000 N   0  0  0  0  0  0  0  0  0  0  0  0
    1.9233   -0.2854    0.0000 C   0  0  0  0  0  0  0  0  0  0  0  0
    2.6378    0.1271    0.0000 C   0  0  0  0  0  0  0  0  0  0  0  0
    2.6378    0.9521    0.0000 N   0  0  0  0  0  0  0  0  0  0  0  0
    1.9233    1.3646    0.0000 C   0  0  0  0  0  0  0  0  0  0  0  0
    1.9233    2.1896    0.0000 C   0  0  0  0  0  0  0  0  0  0  0  0
    1.2089    2.6021    0.0000 C   0  0  0  0  0  0  0  0  0  0  0  0
    1.2089    3.4271    0.0000 C   0  0  0  0  0  0  0  0  0  0  0  0
    1.9233    3.8396    0.0000 C   0  0  0  0  0  0  0  0  0  0  0  0
    2.6378    3.4271    0.0000 C   0  0  0  0  0  0  0  0  0  0  0  0
    2.6378    2.6021    0.0000 C   0  0  0  0  0  0  0  0  0  0  0  0
    3.3523   -0.2854    0.0000 N   0  0  0  0  0  0  0  0  0  0  0  0
    3.3523   -1.1104    0.0000 C   0  0  0  0  0  0  0  0  0  0  0  0
    4.0668   -1.5229    0.0000 N   0  0  0  0  0  0  0  0  0  0  0  0
    4.7812   -1.1104    0.0000 C   0  0  0  0  0  0  0  0  0  0  0  0
    5.4957   -1.5229    0.0000 C   0  0  0  0  0  0  0  0  0  0  0  0
    6.2102   -1.1104    0.0000 O   0  0  0  0  0  0  0  0  0  0  0  0
    2.6378   -1.5229    0.0000 N   0  0  0  0  0  0  0  0  0  0  0  0
    1.9233   -1.1104    0.0000 C   0  0  0  0  0  0  0  0  0  0  0  0
  1  2  1  0
  2  3  1  0
  2  4  1  0
  4  5  1  0
  5  6  2  0
  6  7  1  0
  7  8  2  0
  8  9  1  0
  9 10  1  0
 10 11  1  0
 11 12  2  0
 12 13  1  0
 13 14  2  0
 14 15  1  0
 15 16  2  0
 11 16  1  0
  8 17  1  0
 17 18  2  0
 18 19  1  0
 19 20  1  0
 20 21  1  0
 21 22  1  0
 18 23  1  0
 23 24  2  0
  4 24  1  0
  7 24  1  0
M  END
>  <pIC50>  (436) 
5.10

>  <chembl_id>  (436) 
CHEMBL86066

>  <canonical_smiles>  (436) 
CC(C)n1cnc2c(NCc3ccccc3)nc(NCCO)nc12

$$$$
